#------------------------------------------------------------------------------
#$Date: 2016-02-14 06:40:26 +0200 (Sun, 14 Feb 2016) $
#$Revision: 176432 $
#$URL: svn://www.crystallography.net/cod/cif/4/06/41/4064102.cif $
#------------------------------------------------------------------------------
#
# This file is available in the Crystallography Open Database (COD),
# http://www.crystallography.net/
#
# All data on this site have been placed in the public domain by the
# contributors.
#
data_4064102
loop_
_publ_author_name
'Szadkowska, Anna'
'\.Zukowska, Karolina'
'Pazio, Aleksandra E.'
'Wo\'zniak, Krzysztof'
'Kadyrov, Renat'
'Grela, Karol'
_publ_section_title
;
 Ruthenium Olefin Metathesis Catalysts Containing Six-Membered Sulfone and
 Sulfonamide Chelating Rings
;
_journal_issue                   5
_journal_name_full               Organometallics
_journal_page_first              1130
_journal_page_last               1138
_journal_paper_doi               10.1021/om101129b
_journal_volume                  30
_journal_year                    2011
_chemical_formula_moiety
'2(C43 H56 Br Cl2 N3 O2 Ru S), 2(C4 H10 O), C7'
_chemical_formula_sum            'C101 H132 Br2 Cl4 N6 O6 Ru2 S2'
_chemical_formula_weight         2094.01
_chemical_name_systematic        ?
_space_group_IT_number           2
_symmetry_cell_setting           triclinic
_symmetry_space_group_name_Hall  '-P 1'
_symmetry_space_group_name_H-M   'P -1'
_atom_sites_solution_hydrogens   geom
_atom_sites_solution_primary     direct
_atom_sites_solution_secondary   difmap
_audit_creation_method           SHELXL-97
_cell_angle_alpha                109.096(5)
_cell_angle_beta                 93.843(5)
_cell_angle_gamma                113.136(6)
_cell_formula_units_Z            1
_cell_length_a                   12.9528(8)
_cell_length_b                   13.0824(8)
_cell_length_c                   17.9545(9)
_cell_measurement_reflns_used    765
_cell_measurement_temperature    100(2)
_cell_measurement_theta_max      28.19
_cell_measurement_theta_min      3.05
_cell_volume                     2576.0(3)
_computing_cell_refinement
;
'CrysAlis RED, Oxford Diffraction Ltd.,
Version 1.171.33.66 (release 28-04-2010 CrysAlis171 .NET)
(compiled Apr 28 2010,14:27:37)'
;
_computing_data_collection
;
'CrysAlis CCD, Oxford Diffraction Ltd.,
Version 1.171.33.66 (release 28-04-2010 CrysAlis171 .NET)
(compiled Apr 28 2010,14:27:37)'
;
_computing_data_reduction
;
'CrysAlis RED, Oxford Diffraction Ltd.,
Version 1.171.33.66 (release 28-04-2010 CrysAlis171 .NET)
(compiled Apr 28 2010,14:27:37)'
;
_computing_molecular_graphics    'WINGX, MERCURY, ORTEP'
_computing_publication_material  SHELXTL-97
_computing_structure_refinement  'SHELXL-97 (Sheldrick, 1997)'
_computing_structure_solution    'SHELXS-97 (Sheldrick, 1990)'
_diffrn_ambient_temperature      100(2)
_diffrn_detector_area_resol_mean 8.4441
_diffrn_measured_fraction_theta_full 0.997
_diffrn_measured_fraction_theta_max 0.997
_diffrn_measurement_device_type  'Xcalibur, Opal'
_diffrn_measurement_method       'omega scan'
_diffrn_radiation_monochromator  graphite
_diffrn_radiation_source         'fine-focus sealed tube'
_diffrn_radiation_type           MoK\a
_diffrn_radiation_wavelength     0.71073
_diffrn_reflns_av_R_equivalents  0.0000
_diffrn_reflns_av_sigmaI/netI    0.1356
_diffrn_reflns_limit_h_max       16
_diffrn_reflns_limit_h_min       -16
_diffrn_reflns_limit_k_max       15
_diffrn_reflns_limit_k_min       -16
_diffrn_reflns_limit_l_max       22
_diffrn_reflns_limit_l_min       0
_diffrn_reflns_number            10511
_diffrn_reflns_theta_full        26.37
_diffrn_reflns_theta_max         26.37
_diffrn_reflns_theta_min         3.05
_exptl_absorpt_coefficient_mu    1.266
_exptl_absorpt_correction_T_max  0.942
_exptl_absorpt_correction_T_min  0.920
_exptl_absorpt_correction_type   analytical
_exptl_absorpt_process_details
; 
'CrysAlis RED, Oxford Diffraction Ltd.,
Version 1.171.33.66 (release 28-04-2010 CrysAlis171 .NET)
(compiled Apr 28 2010,14:27:37)
Empirical absorption correction using spherical harmonics,
implemented in SCALE3 ABSPACK scaling algorithm.'
;
_exptl_crystal_colour            green
_exptl_crystal_density_diffrn    1.350
_exptl_crystal_density_method    'not measured'
_exptl_crystal_description       block
_exptl_crystal_F_000             1086
_exptl_crystal_size_max          0.152
_exptl_crystal_size_mid          0.055
_exptl_crystal_size_min          0.047
_refine_diff_density_max         0.816
_refine_diff_density_min         -1.823
_refine_diff_density_rms         0.134
_refine_ls_extinction_method     none
_refine_ls_goodness_of_fit_ref   1.557
_refine_ls_hydrogen_treatment    constr
_refine_ls_matrix_type           full
_refine_ls_number_parameters     557
_refine_ls_number_reflns         10511
_refine_ls_number_restraints     48
_refine_ls_restrained_S_all      1.555
_refine_ls_R_factor_all          0.1875
_refine_ls_R_factor_gt           0.1697
_refine_ls_shift/su_max          0.000
_refine_ls_shift/su_mean         0.000
_refine_ls_structure_factor_coef Fsqd
_refine_ls_weighting_details
'calc w=1/[\s^2^(Fo^2^)+(0.0000P)^2^+13.9705P] where P=(Fo^2^+2Fc^2^)/3'
_refine_ls_weighting_scheme      calc
_refine_ls_wR_factor_gt          0.1937
_refine_ls_wR_factor_ref         0.1991
_reflns_number_gt                9619
_reflns_number_total             10511
_reflns_threshold_expression     >2sigma(I)
_cod_data_source_file            om101129b_si_003.cif
_cod_data_source_block           SiPr_SO2_tBu
_cod_original_sg_symbol_Hall     -P1
_cod_original_sg_symbol_H-M      P-1
_cod_database_code               4064102
loop_
_symmetry_equiv_pos_as_xyz
'x, y, z'
'-x, -y, -z'
loop_
_atom_site_label
_atom_site_type_symbol
_atom_site_fract_x
_atom_site_fract_y
_atom_site_fract_z
_atom_site_U_iso_or_equiv
_atom_site_adp_type
_atom_site_occupancy
_atom_site_symmetry_multiplicity
_atom_site_calc_flag
_atom_site_refinement_flags
_atom_site_disorder_assembly
_atom_site_disorder_group
Ru1 Ru 0.26793(7) 0.05464(7) 0.33206(5) 0.00523(18) Uani 1 1 d . . .
Br1 Br 0.20515(12) -0.25209(12) 0.51870(8) 0.0351(4) Uani 1 1 d . . .
Cl1 Cl 0.0729(2) -0.0902(2) 0.31714(16) 0.0201(6) Uani 1 1 d . . .
Cl2 Cl 0.4625(2) 0.1888(2) 0.35057(16) 0.0204(6) Uani 1 1 d . . .
S1 S 0.3190(2) 0.2433(2) 0.52657(15) 0.0135(6) Uani 1 1 d . . .
O1 O 0.2981(6) 0.1260(6) 0.4675(4) 0.0173(17) Uani 1 1 d . . .
O2 O 0.4241(6) 0.3069(6) 0.5883(4) 0.0138(15) Uani 1 1 d . . .
N1 N 0.1845(7) 0.0086(7) 0.1559(5) 0.0149(19) Uani 1 1 d . . .
N2 N 0.2608(7) -0.1093(7) 0.1679(5) 0.0128(18) Uani 1 1 d U . .
N3 N 0.3282(7) -0.0634(7) 0.3765(5) 0.0124(19) Uani 1 1 d . . .
C1 C 0.2398(8) -0.0167(9) 0.2123(6) 0.012(2) Uani 1 1 d . . .
C2 C 0.1579(10) -0.0832(10) 0.0734(6) 0.023(3) Uani 1 1 d U . .
H2A H 0.0779 -0.1425 0.0576 0.027 Uiso 1 1 calc R . .
H2B H 0.1737 -0.0462 0.0341 0.027 Uiso 1 1 calc R . .
C3 C 0.2354(11) -0.1380(11) 0.0809(7) 0.033(3) Uani 1 1 d U . .
H3A H 0.1977 -0.2244 0.0504 0.040 Uiso 1 1 calc R . .
H3B H 0.3049 -0.1027 0.0627 0.040 Uiso 1 1 calc R . .
C4 C 0.1620(9) 0.1093(9) 0.1627(6) 0.015(2) Uani 1 1 d U . .
C5 C 0.2505(9) 0.2156(9) 0.1650(6) 0.014(2) Uani 1 1 d . . .
C6 C 0.2192(10) 0.3018(10) 0.1557(6) 0.023(3) Uani 1 1 d . . .
H6 H 0.2757 0.3719 0.1545 0.028 Uiso 1 1 calc R . .
C7 C 0.1068(10) 0.2861(10) 0.1483(7) 0.026(3) Uani 1 1 d . . .
H7 H 0.0886 0.3461 0.1435 0.031 Uiso 1 1 calc R . .
C8 C 0.0213(10) 0.1815(10) 0.1478(6) 0.023(3) Uani 1 1 d . . .
H8 H -0.0544 0.1715 0.1426 0.028 Uiso 1 1 calc R . .
C9 C 0.0469(9) 0.0893(9) 0.1551(6) 0.016(2) Uani 1 1 d . . .
C10 C 0.3751(9) 0.2372(10) 0.1752(6) 0.022(3) Uani 1 1 d . . .
H10 H 0.3829 0.1837 0.2004 0.027 Uiso 1 1 calc R . .
C12 C -0.0515(9) -0.0245(10) 0.1527(6) 0.021(3) Uani 1 1 d . . .
H12 H -0.0186 -0.0763 0.1619 0.025 Uiso 1 1 calc R . .
C13 C 0.3178(9) -0.1734(9) 0.1913(6) 0.014(2) Uani 1 1 d U . .
C14 C 0.2512(10) -0.2804(10) 0.2028(6) 0.021(3) Uani 1 1 d . . .
C15 C 0.3081(11) -0.3418(10) 0.2197(7) 0.028(3) Uani 1 1 d . . .
H15 H 0.2661 -0.4109 0.2290 0.034 Uiso 1 1 calc R . .
C16 C 0.4229(12) -0.3071(11) 0.2237(8) 0.038(3) Uani 1 1 d . . .
H16 H 0.4583 -0.3508 0.2364 0.046 Uiso 1 1 calc R . .
C17 C 0.4857(11) -0.2063(11) 0.2087(7) 0.033(3) Uani 1 1 d . . .
H17 H 0.5631 -0.1851 0.2083 0.040 Uiso 1 1 calc R . .
C18 C 0.4372(10) -0.1355(9) 0.1941(7) 0.024(3) Uani 1 1 d . . .
C19 C 0.5087(11) -0.0278(11) 0.1754(7) 0.034(3) Uani 1 1 d . . .
H19 H 0.4641 0.0174 0.1743 0.040 Uiso 1 1 calc R . .
C21 C 0.1229(10) -0.3297(9) 0.1906(6) 0.022(3) Uani 1 1 d . . .
H21 H 0.1030 -0.2628 0.1969 0.027 Uiso 1 1 calc R . .
C22 C 0.2053(9) 0.1611(9) 0.3369(6) 0.013(2) Uani 1 1 d U . .
H22 H 0.1373 0.1321 0.2993 0.016 Uiso 1 1 calc R . .
C23 C 0.2522(9) 0.2864(9) 0.3938(6) 0.014(2) Uani 1 1 d . . .
C24 C 0.2395(9) 0.3688(9) 0.3647(6) 0.015(2) Uani 1 1 d U . .
H24 H 0.1954 0.3403 0.3129 0.018 Uiso 1 1 calc R . .
C25 C 0.2906(9) 0.4915(9) 0.4105(6) 0.019(2) Uani 1 1 d U . .
H25 H 0.2818 0.5440 0.3889 0.022 Uiso 1 1 calc R . .
C26 C 0.3549(9) 0.5363(9) 0.4887(6) 0.020(2) Uani 1 1 d . . .
H26 H 0.3907 0.6188 0.5190 0.024 Uiso 1 1 calc R . .
C27 C 0.3652(9) 0.4590(9) 0.5208(6) 0.018(2) Uani 1 1 d . . .
H27 H 0.4067 0.4887 0.5736 0.021 Uiso 1 1 calc R . .
C28 C 0.3139(8) 0.3348(9) 0.4748(6) 0.015(2) Uani 1 1 d . . .
C29 C 0.1982(9) 0.2152(9) 0.5756(6) 0.015(2) Uani 1 1 d . . .
C30 C 0.0869(9) 0.1635(10) 0.5124(7) 0.025(3) Uani 1 1 d . . .
H30A H 0.0818 0.0950 0.4680 0.038 Uiso 1 1 calc R . .
H30B H 0.0870 0.2238 0.4931 0.038 Uiso 1 1 calc R . .
H30C H 0.0220 0.1392 0.5364 0.038 Uiso 1 1 calc R . .
C31 C 0.2166(11) 0.3335(10) 0.6427(7) 0.033(3) Uani 1 1 d . . .
H31A H 0.2104 0.3874 0.6190 0.049 Uiso 1 1 calc R . .
H31B H 0.2917 0.3699 0.6774 0.049 Uiso 1 1 calc R . .
H31C H 0.1590 0.3172 0.6739 0.049 Uiso 1 1 calc R . .
C32 C 0.1991(10) 0.1248(10) 0.6114(7) 0.025(3) Uani 1 1 d . . .
H32A H 0.1396 0.1098 0.6410 0.037 Uiso 1 1 calc R . .
H32B H 0.2726 0.1568 0.6471 0.037 Uiso 1 1 calc R . .
H32C H 0.1858 0.0508 0.5686 0.037 Uiso 1 1 calc R . .
C33 C 0.2637(10) -0.1220(9) 0.4177(6) 0.019(2) Uani 1 1 d . . .
H33 H 0.1901 -0.1268 0.4177 0.022 Uiso 1 1 calc R . .
C34 C 0.3027(10) -0.1762(9) 0.4608(6) 0.022(3) Uani 1 1 d . . .
C35 C 0.4107(9) -0.1748(9) 0.4583(6) 0.019(2) Uani 1 1 d . . .
H35 H 0.4372 -0.2135 0.4844 0.023 Uiso 1 1 calc R . .
C36 C 0.4764(9) -0.1140(10) 0.4158(6) 0.022(3) Uani 1 1 d . . .
H36 H 0.5492 -0.1102 0.4130 0.026 Uiso 1 1 calc R . .
C37 C 0.4338(9) -0.0590(9) 0.3774(6) 0.019(2) Uani 1 1 d . . .
H37 H 0.4806 -0.0162 0.3505 0.022 Uiso 1 1 calc R . .
C91 C 0.4079(11) 0.2026(12) 0.0949(7) 0.041(3) Uani 1 1 d . . .
H91A H 0.3570 0.1201 0.0619 0.061 Uiso 1 1 calc R . .
H91B H 0.4857 0.2123 0.1035 0.061 Uiso 1 1 calc R . .
H91C H 0.4020 0.2534 0.0682 0.061 Uiso 1 1 calc R . .
C92 C 0.4578(10) 0.3665(10) 0.2325(7) 0.030(3) Uani 1 1 d . . .
H92A H 0.4616 0.4209 0.2065 0.044 Uiso 1 1 calc R . .
H92B H 0.5332 0.3717 0.2460 0.044 Uiso 1 1 calc R . .
H92C H 0.4304 0.3877 0.2810 0.044 Uiso 1 1 calc R . .
C93 C -0.1342(10) -0.0931(11) 0.0690(7) 0.035(3) Uani 1 1 d . . .
H93A H -0.1691 -0.0449 0.0591 0.053 Uiso 1 1 calc R . .
H93B H -0.1930 -0.1674 0.0674 0.053 Uiso 1 1 calc R . .
H93C H -0.0921 -0.1100 0.0283 0.053 Uiso 1 1 calc R . .
C94 C -0.1184(11) 0.0012(12) 0.2191(7) 0.037(3) Uani 1 1 d . . .
H94A H -0.0663 0.0425 0.2713 0.055 Uiso 1 1 calc R . .
H94B H -0.1774 -0.0735 0.2167 0.055 Uiso 1 1 calc R . .
H94C H -0.1530 0.0505 0.2107 0.055 Uiso 1 1 calc R . .
C95 C 0.5383(13) -0.0683(13) 0.0919(9) 0.056(4) Uani 1 1 d . . .
H95A H 0.5855 -0.1091 0.0931 0.084 Uiso 1 1 calc R . .
H95B H 0.5793 0.0011 0.0796 0.084 Uiso 1 1 calc R . .
H95C H 0.4685 -0.1218 0.0512 0.084 Uiso 1 1 calc R . .
C96 C 0.6228(10) 0.0569(11) 0.2390(8) 0.041(4) Uani 1 1 d . . .
H96A H 0.6066 0.0889 0.2907 0.062 Uiso 1 1 calc R . .
H96B H 0.6669 0.1218 0.2234 0.062 Uiso 1 1 calc R . .
H96C H 0.6660 0.0128 0.2425 0.062 Uiso 1 1 calc R . .
C97 C 0.0658(12) -0.4226(12) 0.1043(7) 0.046(4) Uani 1 1 d . . .
H97A H 0.0898 -0.3848 0.0667 0.068 Uiso 1 1 calc R . .
H97B H -0.0164 -0.4545 0.0969 0.068 Uiso 1 1 calc R . .
H97C H 0.0881 -0.4867 0.0950 0.068 Uiso 1 1 calc R . .
C98 C 0.0715(11) -0.3858(10) 0.2495(7) 0.034(3) Uani 1 1 d . . .
H98A H 0.0806 -0.4581 0.2399 0.051 Uiso 1 1 calc R . .
H98B H -0.0090 -0.4049 0.2419 0.051 Uiso 1 1 calc R . .
H98C H 0.1104 -0.3298 0.3040 0.051 Uiso 1 1 calc R . .
O102 O 0.8521(7) 0.3381(7) 0.2422(5) 0.034(2) Uani 1 1 d . . .
C100 C 0.7553(13) 0.2995(13) 0.1144(8) 0.052(4) Uani 1 1 d . . .
H10A H 0.8274 0.3404 0.1019 0.079 Uiso 1 1 calc R . .
H10B H 0.6959 0.3085 0.0861 0.079 Uiso 1 1 calc R . .
H10C H 0.7365 0.2156 0.0979 0.079 Uiso 1 1 calc R . .
C101 C 0.7649(11) 0.3532(11) 0.2040(7) 0.032(3) Uani 1 1 d . . .
H10D H 0.7836 0.4380 0.2214 0.038 Uiso 1 1 calc R . .
H10E H 0.6925 0.3126 0.2174 0.038 Uiso 1 1 calc R . .
C103 C 0.8737(12) 0.3936(12) 0.3290(7) 0.036(3) Uani 1 1 d . . .
H10F H 0.8052 0.3565 0.3475 0.043 Uiso 1 1 calc R . .
H10G H 0.8938 0.4787 0.3455 0.043 Uiso 1 1 calc R . .
C104 C 0.9705(12) 0.3775(14) 0.3648(9) 0.053(4) Uani 1 1 d . . .
H10H H 0.9501 0.2931 0.3479 0.080 Uiso 1 1 calc R . .
H10I H 0.9854 0.4133 0.4228 0.080 Uiso 1 1 calc R . .
H10J H 1.0383 0.4157 0.3469 0.080 Uiso 1 1 calc R . .
C203 C 0.5985(19) 0.5436(19) 0.0427(13) 0.090(6) Uiso 1 1 d . . .
C200 C 0.800(2) 0.638(2) 0.1311(14) 0.101(7) Uiso 1 1 d . . .
C201 C 0.724(3) 0.563(3) 0.050(2) 0.092(15) Uiso 0.58(4) 1 d P A 1
C202 C 0.682(4) 0.610(4) 0.121(3) 0.065(16) Uiso 0.42(4) 1 d P A 2
C204 C 0.520(3) 0.481(3) -0.031(2) 0.078(11) Uiso 0.50 1 d P . .
loop_
_atom_site_aniso_label
_atom_site_aniso_U_11
_atom_site_aniso_U_22
_atom_site_aniso_U_33
_atom_site_aniso_U_23
_atom_site_aniso_U_13
_atom_site_aniso_U_12
Ru1 0.0061(4) 0.0054(4) 0.0039(4) -0.0002(3) -0.0007(3) 0.0042(3)
Br1 0.0450(9) 0.0424(8) 0.0377(8) 0.0314(7) 0.0192(7) 0.0240(7)
Cl1 0.0180(15) 0.0221(15) 0.0239(15) 0.0139(12) 0.0064(12) 0.0079(12)
Cl2 0.0215(15) 0.0211(14) 0.0216(15) 0.0116(12) 0.0043(12) 0.0094(12)
S1 0.0143(14) 0.0161(13) 0.0111(13) 0.0058(11) 0.0022(10) 0.0074(11)
O1 0.029(4) 0.014(4) 0.014(4) 0.009(3) 0.005(3) 0.012(3)
O2 0.014(4) 0.017(4) 0.010(3) 0.002(3) -0.002(3) 0.010(3)
N1 0.022(5) 0.017(5) 0.008(4) 0.005(4) 0.001(4) 0.011(4)
N2 0.014(4) 0.016(3) 0.008(3) 0.003(3) -0.002(3) 0.009(3)
N3 0.016(5) 0.012(4) 0.008(4) 0.003(3) 0.004(4) 0.005(4)
C1 0.008(5) 0.017(5) 0.011(5) 0.002(4) 0.001(4) 0.007(4)
C2 0.025(4) 0.025(4) 0.016(4) 0.003(3) 0.004(3) 0.012(4)
C3 0.041(5) 0.032(5) 0.028(5) 0.012(4) 0.005(4) 0.018(4)
C4 0.018(4) 0.014(4) 0.012(4) 0.003(3) 0.003(3) 0.008(3)
C5 0.025(6) 0.015(5) 0.006(5) 0.003(4) 0.001(4) 0.014(5)
C6 0.034(7) 0.020(6) 0.013(6) 0.007(5) 0.007(5) 0.010(5)
C7 0.039(8) 0.027(7) 0.025(6) 0.011(5) 0.005(6) 0.027(6)
C8 0.025(7) 0.038(7) 0.021(6) 0.017(6) 0.005(5) 0.021(6)
C9 0.019(6) 0.023(6) 0.011(5) 0.012(5) 0.010(5) 0.009(5)
C10 0.020(6) 0.029(7) 0.016(6) 0.006(5) -0.001(5) 0.011(5)
C12 0.017(6) 0.024(6) 0.021(6) 0.017(5) 0.002(5) 0.002(5)
C13 0.018(4) 0.012(4) 0.012(4) 0.003(3) 0.004(3) 0.009(3)
C14 0.028(7) 0.021(6) 0.009(5) 0.002(5) -0.003(5) 0.011(5)
C15 0.046(8) 0.015(6) 0.027(7) 0.004(5) 0.004(6) 0.020(6)
C16 0.047(9) 0.033(8) 0.039(8) 0.007(6) 0.005(7) 0.028(7)
C17 0.026(7) 0.033(7) 0.042(8) 0.011(6) 0.013(6) 0.017(6)
C18 0.029(7) 0.014(6) 0.025(6) -0.002(5) 0.012(5) 0.013(5)
C19 0.038(8) 0.031(7) 0.029(7) 0.010(6) 0.020(6) 0.012(6)
C21 0.036(7) 0.016(6) 0.016(6) 0.004(5) 0.005(5) 0.015(5)
C22 0.014(4) 0.015(4) 0.012(4) 0.006(3) 0.005(3) 0.006(3)
C23 0.017(6) 0.017(5) 0.016(5) 0.010(4) 0.007(4) 0.011(5)
C24 0.018(4) 0.017(4) 0.015(4) 0.008(3) 0.003(3) 0.010(3)
C25 0.023(4) 0.017(4) 0.024(4) 0.011(3) 0.003(3) 0.014(3)
C26 0.018(6) 0.013(5) 0.023(6) 0.001(5) 0.000(5) 0.007(5)
C27 0.022(6) 0.015(5) 0.020(6) 0.008(5) 0.005(5) 0.011(5)
C28 0.011(5) 0.020(6) 0.020(6) 0.009(5) 0.007(4) 0.010(5)
C29 0.019(6) 0.020(6) 0.009(5) 0.008(4) 0.008(4) 0.009(5)
C30 0.022(7) 0.034(7) 0.026(6) 0.016(6) 0.009(5) 0.014(6)
C31 0.046(8) 0.031(7) 0.025(7) 0.006(6) 0.024(6) 0.022(6)
C32 0.030(7) 0.032(7) 0.025(6) 0.019(5) 0.013(5) 0.017(6)
C33 0.023(6) 0.018(6) 0.016(6) 0.006(5) 0.007(5) 0.010(5)
C34 0.027(7) 0.016(6) 0.016(6) 0.007(5) 0.007(5) 0.003(5)
C35 0.022(6) 0.014(6) 0.018(6) 0.002(5) 0.002(5) 0.009(5)
C36 0.015(6) 0.025(6) 0.025(6) 0.008(5) 0.001(5) 0.011(5)
C37 0.015(6) 0.017(6) 0.025(6) 0.009(5) 0.008(5) 0.007(5)
C91 0.037(8) 0.053(9) 0.025(7) 0.010(6) 0.006(6) 0.018(7)
C92 0.026(7) 0.024(7) 0.025(7) 0.004(5) 0.004(5) 0.002(6)
C93 0.022(7) 0.027(7) 0.043(8) 0.019(6) -0.005(6) -0.005(6)
C94 0.029(7) 0.060(9) 0.036(8) 0.027(7) 0.015(6) 0.025(7)
C95 0.064(11) 0.044(9) 0.055(10) 0.013(8) 0.040(9) 0.020(8)
C96 0.028(8) 0.036(8) 0.064(10) 0.012(7) 0.023(7) 0.021(7)
C97 0.040(9) 0.052(9) 0.028(7) 0.013(7) 0.008(6) 0.005(7)
C98 0.040(8) 0.022(7) 0.028(7) 0.009(6) 0.012(6) 0.001(6)
O102 0.037(5) 0.036(5) 0.026(5) 0.011(4) 0.009(4) 0.013(4)
C100 0.052(10) 0.051(9) 0.031(8) 0.010(7) 0.003(7) 0.005(8)
C101 0.037(8) 0.035(7) 0.031(7) 0.018(6) 0.011(6) 0.018(6)
C103 0.045(9) 0.051(9) 0.027(7) 0.022(7) 0.023(6) 0.028(7)
C104 0.045(9) 0.066(11) 0.058(10) 0.037(9) 0.020(8) 0.021(8)
loop_
_atom_type_symbol
_atom_type_description
_atom_type_scat_dispersion_real
_atom_type_scat_dispersion_imag
_atom_type_scat_source
C C 0.0033 0.0016 'International Tables Vol C Tables 4.2.6.8 and 6.1.1.4'
H H 0.0000 0.0000 'International Tables Vol C Tables 4.2.6.8 and 6.1.1.4'
N N 0.0061 0.0033 'International Tables Vol C Tables 4.2.6.8 and 6.1.1.4'
O O 0.0106 0.0060 'International Tables Vol C Tables 4.2.6.8 and 6.1.1.4'
S S 0.1246 0.1234 'International Tables Vol C Tables 4.2.6.8 and 6.1.1.4'
Cl Cl 0.1484 0.1585 'International Tables Vol C Tables 4.2.6.8 and 6.1.1.4'
Br Br -0.2901 2.4595 'International Tables Vol C Tables 4.2.6.8 and 6.1.1.4'
Ru Ru -1.2594 0.8363 'International Tables Vol C Tables 4.2.6.8 and 6.1.1.4'
loop_
_geom_angle_atom_site_label_1
_geom_angle_atom_site_label_2
_geom_angle_atom_site_label_3
_geom_angle
_geom_angle_site_symmetry_1
_geom_angle_site_symmetry_3
C22 Ru1 C1 96.2(4) . .
C22 Ru1 O1 86.2(3) . .
C1 Ru1 O1 177.1(4) . .
C22 Ru1 N3 156.8(4) . .
C1 Ru1 N3 105.3(3) . .
O1 Ru1 N3 72.1(3) . .
C22 Ru1 Cl2 97.7(3) . .
C1 Ru1 Cl2 94.8(3) . .
O1 Ru1 Cl2 86.5(2) . .
N3 Ru1 Cl2 89.3(2) . .
C22 Ru1 Cl1 85.6(3) . .
C1 Ru1 Cl1 86.6(3) . .
O1 Ru1 Cl1 91.9(2) . .
N3 Ru1 Cl1 86.9(2) . .
Cl2 Ru1 Cl1 176.17(10) . .
O2 S1 O1 116.9(4) . .
O2 S1 C28 109.3(5) . .
O1 S1 C28 108.6(4) . .
O2 S1 C29 108.3(4) . .
O1 S1 C29 105.5(4) . .
C28 S1 C29 107.8(5) . .
S1 O1 Ru1 131.5(4) . .
C1 N1 C4 132.2(8) . .
C1 N1 C2 110.4(8) . .
C4 N1 C2 117.0(8) . .
C1 N2 C13 131.6(8) . .
C1 N2 C3 113.5(8) . .
C13 N2 C3 114.4(8) . .
C33 N3 C37 117.2(9) . .
C33 N3 Ru1 117.7(7) . .
C37 N3 Ru1 123.8(7) . .
N2 C1 N1 105.3(8) . .
N2 C1 Ru1 126.4(7) . .
N1 C1 Ru1 128.0(7) . .
C3 C2 N1 103.4(9) . .
C3 C2 H2A 111.1 . .
N1 C2 H2A 111.1 . .
C3 C2 H2B 111.1 . .
N1 C2 H2B 111.1 . .
H2A C2 H2B 109.1 . .
N2 C3 C2 102.3(9) . .
N2 C3 H3A 111.3 . .
C2 C3 H3A 111.3 . .
N2 C3 H3B 111.3 . .
C2 C3 H3B 111.3 . .
H3A C3 H3B 109.2 . .
C5 C4 C9 123.1(9) . .
C5 C4 N1 119.7(9) . .
C9 C4 N1 116.6(9) . .
C6 C5 C4 117.0(10) . .
C6 C5 C10 120.4(10) . .
C4 C5 C10 122.5(9) . .
C7 C6 C5 121.8(11) . .
C7 C6 H6 119.1 . .
C5 C6 H6 119.1 . .
C8 C7 C6 120.0(10) . .
C8 C7 H7 120.0 . .
C6 C7 H7 120.0 . .
C7 C8 C9 120.9(10) . .
C7 C8 H8 119.5 . .
C9 C8 H8 119.5 . .
C4 C9 C8 117.0(10) . .
C4 C9 C12 124.7(10) . .
C8 C9 C12 118.3(10) . .
C91 C10 C5 111.8(9) . .
C91 C10 C92 111.9(10) . .
C5 C10 C92 112.3(9) . .
C91 C10 H10 106.8 . .
C5 C10 H10 106.8 . .
C92 C10 H10 106.8 . .
C9 C12 C93 110.5(8) . .
C9 C12 C94 112.5(10) . .
C93 C12 C94 110.1(10) . .
C9 C12 H12 107.8 . .
C93 C12 H12 107.8 . .
C94 C12 H12 107.8 . .
C14 C13 C18 120.8(10) . .
C14 C13 N2 119.4(9) . .
C18 C13 N2 119.5(9) . .
C15 C14 C13 117.1(11) . .
C15 C14 C21 121.1(10) . .
C13 C14 C21 121.6(10) . .
C16 C15 C14 123.5(12) . .
C16 C15 H15 118.2 . .
C14 C15 H15 118.2 . .
C15 C16 C17 118.9(12) . .
C15 C16 H16 120.6 . .
C17 C16 H16 120.6 . .
C16 C17 C18 122.0(12) . .
C16 C17 H17 119.0 . .
C18 C17 H17 119.0 . .
C17 C18 C13 117.6(11) . .
C17 C18 C19 120.0(11) . .
C13 C18 C19 122.2(10) . .
C18 C19 C96 112.4(11) . .
C18 C19 C95 110.8(10) . .
C96 C19 C95 107.9(11) . .
C18 C19 H19 108.6 . .
C96 C19 H19 108.6 . .
C95 C19 H19 108.6 . .
C14 C21 C98 115.4(9) . .
C14 C21 C97 109.7(10) . .
C98 C21 C97 108.9(9) . .
C14 C21 H21 107.5 . .
C98 C21 H21 107.5 . .
C97 C21 H21 107.5 . .
C23 C22 Ru1 126.5(7) . .
C23 C22 H22 116.8 . .
Ru1 C22 H22 116.8 . .
C24 C23 C28 116.0(9) . .
C24 C23 C22 117.2(9) . .
C28 C23 C22 126.8(9) . .
C25 C24 C23 122.2(9) . .
C25 C24 H24 118.9 . .
C23 C24 H24 118.9 . .
C24 C25 C26 120.1(9) . .
C24 C25 H25 119.9 . .
C26 C25 H25 119.9 . .
C27 C26 C25 119.7(10) . .
C27 C26 H26 120.1 . .
C25 C26 H26 120.1 . .
C26 C27 C28 120.4(10) . .
C26 C27 H27 119.8 . .
C28 C27 H27 119.8 . .
C27 C28 C23 121.4(9) . .
C27 C28 S1 116.0(8) . .
C23 C28 S1 122.3(8) . .
C32 C29 C30 111.4(9) . .
C32 C29 C31 110.5(9) . .
C30 C29 C31 111.0(9) . .
C32 C29 S1 105.5(7) . .
C30 C29 S1 109.1(7) . .
C31 C29 S1 109.2(7) . .
C29 C30 H30A 109.5 . .
C29 C30 H30B 109.5 . .
H30A C30 H30B 109.5 . .
C29 C30 H30C 109.5 . .
H30A C30 H30C 109.5 . .
H30B C30 H30C 109.5 . .
C29 C31 H31A 109.5 . .
C29 C31 H31B 109.5 . .
H31A C31 H31B 109.5 . .
C29 C31 H31C 109.5 . .
H31A C31 H31C 109.5 . .
H31B C31 H31C 109.5 . .
C29 C32 H32A 109.5 . .
C29 C32 H32B 109.5 . .
H32A C32 H32B 109.5 . .
C29 C32 H32C 109.5 . .
H32A C32 H32C 109.5 . .
H32B C32 H32C 109.5 . .
N3 C33 C34 122.3(10) . .
N3 C33 H33 118.8 . .
C34 C33 H33 118.8 . .
C35 C34 C33 119.6(10) . .
C35 C34 Br1 122.2(8) . .
C33 C34 Br1 118.2(9) . .
C36 C35 C34 117.5(10) . .
C36 C35 H35 121.3 . .
C34 C35 H35 121.3 . .
C37 C36 C35 119.5(10) . .
C37 C36 H36 120.3 . .
C35 C36 H36 120.3 . .
N3 C37 C36 123.8(10) . .
N3 C37 H37 118.1 . .
C36 C37 H37 118.1 . .
C10 C91 H91A 109.5 . .
C10 C91 H91B 109.5 . .
H91A C91 H91B 109.5 . .
C10 C91 H91C 109.5 . .
H91A C91 H91C 109.5 . .
H91B C91 H91C 109.5 . .
C10 C92 H92A 109.5 . .
C10 C92 H92B 109.5 . .
H92A C92 H92B 109.5 . .
C10 C92 H92C 109.5 . .
H92A C92 H92C 109.5 . .
H92B C92 H92C 109.5 . .
C12 C93 H93A 109.5 . .
C12 C93 H93B 109.5 . .
H93A C93 H93B 109.5 . .
C12 C93 H93C 109.5 . .
H93A C93 H93C 109.5 . .
H93B C93 H93C 109.5 . .
C12 C94 H94A 109.5 . .
C12 C94 H94B 109.5 . .
H94A C94 H94B 109.5 . .
C12 C94 H94C 109.5 . .
H94A C94 H94C 109.5 . .
H94B C94 H94C 109.5 . .
C19 C95 H95A 109.5 . .
C19 C95 H95B 109.5 . .
H95A C95 H95B 109.5 . .
C19 C95 H95C 109.5 . .
H95A C95 H95C 109.5 . .
H95B C95 H95C 109.5 . .
C19 C96 H96A 109.5 . .
C19 C96 H96B 109.5 . .
H96A C96 H96B 109.5 . .
C19 C96 H96C 109.5 . .
H96A C96 H96C 109.5 . .
H96B C96 H96C 109.5 . .
C21 C97 H97A 109.5 . .
C21 C97 H97B 109.5 . .
H97A C97 H97B 109.5 . .
C21 C97 H97C 109.5 . .
H97A C97 H97C 109.5 . .
H97B C97 H97C 109.5 . .
C21 C98 H98A 109.5 . .
C21 C98 H98B 109.5 . .
H98A C98 H98B 109.5 . .
C21 C98 H98C 109.5 . .
H98A C98 H98C 109.5 . .
H98B C98 H98C 109.5 . .
C101 O102 C103 111.8(9) . .
C101 C100 H10A 109.5 . .
C101 C100 H10B 109.5 . .
H10A C100 H10B 109.5 . .
C101 C100 H10C 109.5 . .
H10A C100 H10C 109.5 . .
H10B C100 H10C 109.5 . .
O102 C101 C100 107.3(11) . .
O102 C101 H10D 110.3 . .
C100 C101 H10D 110.3 . .
O102 C101 H10E 110.3 . .
C100 C101 H10E 110.3 . .
H10D C101 H10E 108.5 . .
O102 C103 C104 108.4(11) . .
O102 C103 H10F 110.0 . .
C104 C103 H10F 110.0 . .
O102 C103 H10G 110.0 . .
C104 C103 H10G 110.0 . .
H10F C103 H10G 108.4 . .
C103 C104 H10H 109.5 . .
C103 C104 H10I 109.5 . .
H10H C104 H10I 109.5 . .
C103 C104 H10J 109.5 . .
H10H C104 H10J 109.5 . .
H10I C104 H10J 109.5 . .
C204 C203 C204 55(3) . 2_665
C204 C203 C202 180(4) . .
C204 C203 C202 125(3) 2_665 .
C204 C203 C201 122(3) . .
C204 C203 C201 176(3) 2_665 .
C202 C203 C201 59(2) . .
C202 C200 C201 61(2) . .
C200 C201 C203 116(3) . .
C200 C202 C203 124(3) . .
C204 C204 C203 64(3) 2_665 .
C204 C204 C203 61(3) 2_665 2_665
C203 C204 C203 125(3) . 2_665
loop_
_geom_bond_atom_site_label_1
_geom_bond_atom_site_label_2
_geom_bond_distance
_geom_bond_site_symmetry_2
Ru1 C22 1.851(10) .
Ru1 C1 1.985(10) .
Ru1 O1 2.245(7) .
Ru1 N3 2.303(8) .
Ru1 Cl2 2.361(3) .
Ru1 Cl1 2.420(3) .
Br1 C34 1.879(11) .
S1 O2 1.442(6) .
S1 O1 1.456(7) .
S1 C28 1.756(10) .
S1 C29 1.817(10) .
N1 C1 1.399(12) .
N1 C4 1.427(12) .
N1 C2 1.483(12) .
N2 C1 1.354(12) .
N2 C13 1.450(12) .
N2 C3 1.462(13) .
N3 C33 1.335(12) .
N3 C37 1.344(12) .
C2 C3 1.466(15) .
C2 H2A 0.9700 .
C2 H2B 0.9700 .
C3 H3A 0.9700 .
C3 H3B 0.9700 .
C4 C5 1.397(14) .
C4 C9 1.397(14) .
C5 C6 1.391(14) .
C5 C10 1.513(14) .
C6 C7 1.379(15) .
C6 H6 0.9300 .
C7 C8 1.378(15) .
C7 H7 0.9300 .
C8 C9 1.412(14) .
C8 H8 0.9300 .
C9 C12 1.517(14) .
C10 C91 1.506(15) .
C10 C92 1.536(14) .
C10 H10 0.9800 .
C12 C93 1.534(14) .
C12 C94 1.547(15) .
C12 H12 0.9800 .
C13 C14 1.418(14) .
C13 C18 1.418(15) .
C14 C15 1.370(14) .
C14 C21 1.498(15) .
C15 C16 1.362(17) .
C15 H15 0.9300 .
C16 C17 1.376(17) .
C16 H16 0.9300 .
C17 C18 1.384(15) .
C17 H17 0.9300 .
C18 C19 1.510(16) .
C19 C96 1.540(17) .
C19 C95 1.546(16) .
C19 H19 0.9800 .
C21 C98 1.523(15) .
C21 C97 1.528(15) .
C21 H21 0.9800 .
C22 C23 1.462(13) .
C22 H22 0.9300 .
C23 C24 1.399(13) .
C23 C28 1.414(13) .
C24 C25 1.386(13) .
C24 H24 0.9300 .
C25 C26 1.389(14) .
C25 H25 0.9300 .
C26 C27 1.361(14) .
C26 H26 0.9300 .
C27 C28 1.401(13) .
C27 H27 0.9300 .
C29 C32 1.523(14) .
C29 C30 1.528(14) .
C29 C31 1.536(14) .
C30 H30A 0.9600 .
C30 H30B 0.9600 .
C30 H30C 0.9600 .
C31 H31A 0.9600 .
C31 H31B 0.9600 .
C31 H31C 0.9600 .
C32 H32A 0.9600 .
C32 H32B 0.9600 .
C32 H32C 0.9600 .
C33 C34 1.394(14) .
C33 H33 0.9300 .
C34 C35 1.395(15) .
C35 C36 1.376(14) .
C35 H35 0.9300 .
C36 C37 1.372(14) .
C36 H36 0.9300 .
C37 H37 0.9300 .
C91 H91A 0.9600 .
C91 H91B 0.9600 .
C91 H91C 0.9600 .
C92 H92A 0.9600 .
C92 H92B 0.9600 .
C92 H92C 0.9600 .
C93 H93A 0.9600 .
C93 H93B 0.9600 .
C93 H93C 0.9600 .
C94 H94A 0.9600 .
C94 H94B 0.9600 .
C94 H94C 0.9600 .
C95 H95A 0.9600 .
C95 H95B 0.9600 .
C95 H95C 0.9600 .
C96 H96A 0.9600 .
C96 H96B 0.9600 .
C96 H96C 0.9600 .
C97 H97A 0.9600 .
C97 H97B 0.9600 .
C97 H97C 0.9600 .
C98 H98A 0.9600 .
C98 H98B 0.9600 .
C98 H98C 0.9600 .
O102 C101 1.395(13) .
O102 C103 1.440(13) .
C100 C101 1.505(16) .
C100 H10A 0.9600 .
C100 H10B 0.9600 .
C100 H10C 0.9600 .
C101 H10D 0.9700 .
C101 H10E 0.9700 .
C103 C104 1.489(17) .
C103 H10F 0.9700 .
C103 H10G 0.9700 .
C104 H10H 0.9600 .
C104 H10I 0.9600 .
C104 H10J 0.9600 .
C203 C204 1.39(4) .
C203 C204 1.42(4) 2_665
C203 C202 1.47(4) .
C203 C201 1.53(4) .
C200 C202 1.42(4) .
C200 C201 1.48(4) .
C204 C204 1.29(7) 2_665
C204 C203 1.42(4) 2_665
loop_
_geom_torsion_atom_site_label_1
_geom_torsion_atom_site_label_2
_geom_torsion_atom_site_label_3
_geom_torsion_atom_site_label_4
_geom_torsion
_geom_torsion_site_symmetry_1
_geom_torsion_site_symmetry_4
O2 S1 O1 Ru1 -122.3(5) . .
C28 S1 O1 Ru1 1.9(7) . .
C29 S1 O1 Ru1 117.3(6) . .
C22 Ru1 O1 S1 -29.1(6) . .
N3 Ru1 O1 S1 159.3(6) . .
Cl2 Ru1 O1 S1 68.9(6) . .
Cl1 Ru1 O1 S1 -114.6(6) . .
C22 Ru1 N3 C33 38.7(13) . .
C1 Ru1 N3 C33 -118.4(7) . .
O1 Ru1 N3 C33 60.2(7) . .
Cl2 Ru1 N3 C33 146.9(7) . .
Cl1 Ru1 N3 C33 -32.8(7) . .
C22 Ru1 N3 C37 -128.0(11) . .
C1 Ru1 N3 C37 74.9(8) . .
O1 Ru1 N3 C37 -106.4(8) . .
Cl2 Ru1 N3 C37 -19.8(8) . .
Cl1 Ru1 N3 C37 160.6(8) . .
C13 N2 C1 N1 178.4(9) . .
C3 N2 C1 N1 8.1(12) . .
C13 N2 C1 Ru1 -7.2(16) . .
C3 N2 C1 Ru1 -177.6(8) . .
C4 N1 C1 N2 -165.0(10) . .
C2 N1 C1 N2 7.2(11) . .
C4 N1 C1 Ru1 20.7(16) . .
C2 N1 C1 Ru1 -167.0(8) . .
C22 Ru1 C1 N2 -175.7(9) . .
N3 Ru1 C1 N2 -4.6(10) . .
Cl2 Ru1 C1 N2 85.9(9) . .
Cl1 Ru1 C1 N2 -90.5(9) . .
C22 Ru1 C1 N1 -2.7(10) . .
N3 Ru1 C1 N1 168.5(8) . .
Cl2 Ru1 C1 N1 -101.0(9) . .
Cl1 Ru1 C1 N1 82.6(9) . .
C1 N1 C2 C3 -19.0(12) . .
C4 N1 C2 C3 154.5(9) . .
C1 N2 C3 C2 -19.7(12) . .
C13 N2 C3 C2 168.2(9) . .
N1 C2 C3 N2 21.8(11) . .
C1 N1 C4 C5 77.3(14) . .
C2 N1 C4 C5 -94.5(11) . .
C1 N1 C4 C9 -111.4(12) . .
C2 N1 C4 C9 76.7(12) . .
C9 C4 C5 C6 -2.9(15) . .
N1 C4 C5 C6 167.8(9) . .
C9 C4 C5 C10 178.6(10) . .
N1 C4 C5 C10 -10.7(14) . .
C4 C5 C6 C7 3.0(15) . .
C10 C5 C6 C7 -178.5(10) . .
C5 C6 C7 C8 -1.7(16) . .
C6 C7 C8 C9 0.1(17) . .
C5 C4 C9 C8 1.4(15) . .
N1 C4 C9 C8 -169.5(9) . .
C5 C4 C9 C12 -179.7(10) . .
N1 C4 C9 C12 9.4(14) . .
C7 C8 C9 C4 0.0(16) . .
C7 C8 C9 C12 -178.9(10) . .
C6 C5 C10 C91 -84.3(13) . .
C4 C5 C10 C91 94.1(13) . .
C6 C5 C10 C92 42.4(14) . .
C4 C5 C10 C92 -139.1(10) . .
C4 C9 C12 C93 -113.0(12) . .
C8 C9 C12 C93 65.9(13) . .
C4 C9 C12 C94 123.5(11) . .
C8 C9 C12 C94 -57.6(13) . .
C1 N2 C13 C14 93.6(13) . .
C3 N2 C13 C14 -96.1(11) . .
C1 N2 C13 C18 -93.0(13) . .
C3 N2 C13 C18 77.3(12) . .
C18 C13 C14 C15 2.5(15) . .
N2 C13 C14 C15 175.9(9) . .
C18 C13 C14 C21 -172.9(10) . .
N2 C13 C14 C21 0.5(14) . .
C13 C14 C15 C16 -1.9(17) . .
C21 C14 C15 C16 173.6(11) . .
C14 C15 C16 C17 -1.2(19) . .
C15 C16 C17 C18 3.7(19) . .
C16 C17 C18 C13 -3.0(18) . .
C16 C17 C18 C19 -178.2(11) . .
C14 C13 C18 C17 -0.2(16) . .
N2 C13 C18 C17 -173.6(10) . .
C14 C13 C18 C19 174.8(10) . .
N2 C13 C18 C19 1.5(15) . .
C17 C18 C19 C96 -52.2(15) . .
C13 C18 C19 C96 132.8(11) . .
C17 C18 C19 C95 68.5(15) . .
C13 C18 C19 C95 -106.5(13) . .
C15 C14 C21 C98 42.0(14) . .
C13 C14 C21 C98 -142.8(10) . .
C15 C14 C21 C97 -81.5(13) . .
C13 C14 C21 C97 93.7(12) . .
C1 Ru1 C22 C23 -138.1(9) . .
O1 Ru1 C22 C23 43.5(9) . .
N3 Ru1 C22 C23 64.0(14) . .
Cl2 Ru1 C22 C23 -42.5(9) . .
Cl1 Ru1 C22 C23 135.7(9) . .
Ru1 C22 C23 C24 144.1(8) . .
Ru1 C22 C23 C28 -32.9(15) . .
C28 C23 C24 C25 4.1(15) . .
C22 C23 C24 C25 -173.2(10) . .
C23 C24 C25 C26 -1.4(16) . .
C24 C25 C26 C27 -1.6(16) . .
C25 C26 C27 C28 1.6(16) . .
C26 C27 C28 C23 1.3(16) . .
C26 C27 C28 S1 -172.8(8) . .
C24 C23 C28 C27 -4.0(15) . .
C22 C23 C28 C27 173.0(10) . .
C24 C23 C28 S1 169.7(8) . .
C22 C23 C28 S1 -13.3(15) . .
O2 S1 C28 C27 -32.9(9) . .
O1 S1 C28 C27 -161.5(8) . .
C29 S1 C28 C27 84.6(9) . .
O2 S1 C28 C23 153.1(8) . .
O1 S1 C28 C23 24.5(10) . .
C29 S1 C28 C23 -89.4(9) . .
O2 S1 C29 C32 -68.0(8) . .
O1 S1 C29 C32 57.9(8) . .
C28 S1 C29 C32 173.9(7) . .
O2 S1 C29 C30 172.3(7) . .
O1 S1 C29 C30 -61.8(8) . .
C28 S1 C29 C30 54.2(8) . .
O2 S1 C29 C31 50.8(8) . .
O1 S1 C29 C31 176.7(7) . .
C28 S1 C29 C31 -67.3(8) . .
C37 N3 C33 C34 0.5(14) . .
Ru1 N3 C33 C34 -167.1(8) . .
N3 C33 C34 C35 -3.0(15) . .
N3 C33 C34 Br1 178.3(7) . .
C33 C34 C35 C36 3.0(15) . .
Br1 C34 C35 C36 -178.4(8) . .
C34 C35 C36 C37 -0.6(15) . .
C33 N3 C37 C36 2.1(15) . .
Ru1 N3 C37 C36 168.9(8) . .
C35 C36 C37 N3 -2.1(16) . .
C103 O102 C101 C100 176.2(10) . .
C101 O102 C103 C104 -177.9(11) . .
C202 C200 C201 C203 4(3) . .
C204 C203 C201 C200 176(3) . .
C202 C203 C201 C200 -4(3) . .
C201 C200 C202 C203 -4(3) . .
C204 C203 C202 C200 -177(3) 2_665 .
C201 C203 C202 C200 4(3) . .
C201 C203 C204 C204 178(3) . 2_665
C204 C203 C204 C203 0.000(4) 2_665 2_665
C201 C203 C204 C203 178(3) . 2_665
#------------------------------------------------------------------------------
#$Date: 2016-03-21 06:59:19 +0200 (Mon, 21 Mar 2016) $
#$Revision: 178543 $
#$URL: svn://www.crystallography.net/cod/cif/4/06/49/4064964.cif $
#------------------------------------------------------------------------------
#
# This file is available in the Crystallography Open Database (COD),
# http://www.crystallography.net/
#
# All data on this site have been placed in the public domain by the
# contributors.
#
data_4064964
loop_
_publ_author_name
'Bieniek, Micha\/l'
'Samoj\/lowicz, Cezary'
'Sashuk, Volodymyr'
'Bujok, Robert'
'\'Sled\'z, Pawe\/l'
'Lugan, No\"el'
'Lavigne, Guy'
'Arlt, Dieter'
'Grela, Karol'
_publ_section_title
;
 Rational Design and Evaluation of Upgraded Grubbs/Hoveyda Olefin
 Metathesis Catalysts: Polyfunctional Benzylidene Ethers on the Test Bench
;
_journal_issue                   15
_journal_name_full               Organometallics
_journal_page_first              4144
_journal_paper_doi               10.1021/om200463u
_journal_volume                  30
_journal_year                    2011
_chemical_compound_source        'synthesis as described'
_chemical_formula_moiety         '2(C32 H38 Cl2 N2 O2 Ru), C H4 O'
_chemical_formula_sum            'C65 H80 Cl4 N4 O5 Ru2'
_chemical_formula_weight         1341.27
_chemical_name_systematic
;
 ?
;
_space_group_crystal_system      triclinic
_space_group_IT_number           2
_space_group_name_Hall           '-P 1'
_space_group_name_H-M_alt        'P -1'
_symmetry_space_group_name_Hall  '-P 1'
_symmetry_space_group_name_H-M   'P -1'
_atom_sites_solution_hydrogens   geom
_atom_sites_solution_primary     direct
_atom_sites_solution_secondary   difmap
_audit_creation_date             2011-05-24T18:06:56-00:00
_audit_creation_method           'WinGX routine CIF_UPDATE'
_cell_angle_alpha                74.472(9)
_cell_angle_beta                 73.584(9)
_cell_angle_gamma                70.246(10)
_cell_formula_units_Z            1
_cell_length_a                   10.9701(11)
_cell_length_b                   11.0589(13)
_cell_length_c                   15.1717(15)
_cell_measurement_reflns_used    9999
_cell_measurement_temperature    180(2)
_cell_measurement_theta_max      32.0638
_cell_measurement_theta_min      2.7015
_cell_measurement_wavelength     0.71073
_cell_volume                     1631.2(3)
_computing_cell_refinement
;
        CrysAlis RED, Oxford Diffraction Ltd.,
        Version 1.170.32 (release 06.06.2003 CrysAlis170 VC++)
        (compiled Jun  6 2003,13:53:32)
;
_computing_data_collection
;
        CrysAlis CCD, Oxford Diffraction Ltd.,
        Version 1.170.32 (release 06.06.2003 CrysAlis170 VC++)
        (compiled Jun  6 2003,13:53:32)
;
_computing_data_reduction
;
        CrysAlis RED, Oxford Diffraction Ltd.,
        Version 1.170.32 (release 06.06.2003 CrysAlis170 VC++)
        (compiled Jun  6 2003,13:53:32)
;
_computing_molecular_graphics    'Ortep-3 for Windows (Farrugia, 1997)'
_computing_publication_material  'WinGX publication routines (Farrugia, 1999)'
_computing_structure_refinement  'SHELXL-97 (Sheldrick, 1997)'
_computing_structure_solution    'SHELXS-97 (Sheldrick, 1997)'
_diffrn_ambient_temperature      180(2)
_diffrn_measured_fraction_theta_full 0.991
_diffrn_measured_fraction_theta_max 0.991
_diffrn_measurement_device_type  'Xcalibur (Oxford Diffraction)'
_diffrn_measurement_method       \w
_diffrn_orient_matrix_UB_11      0.0662663037
_diffrn_orient_matrix_UB_12      -0.0167707168
_diffrn_orient_matrix_UB_13      0.0052816304
_diffrn_orient_matrix_UB_21      0.0227669194
_diffrn_orient_matrix_UB_22      -0.0273205302
_diffrn_orient_matrix_UB_23      -0.0410364226
_diffrn_orient_matrix_UB_31      0.0056555812
_diffrn_orient_matrix_UB_32      0.0615781442
_diffrn_orient_matrix_UB_33      -0.0274451147
_diffrn_radiation_monochromator  graphite
_diffrn_radiation_probe          x-ray
_diffrn_radiation_source         'fine-focus sealed tube'
_diffrn_radiation_type           MoK\a
_diffrn_radiation_wavelength     0.71073
_diffrn_reflns_av_R_equivalents  0.0482
_diffrn_reflns_av_sigmaI/netI    0.0703
_diffrn_reflns_limit_h_max       13
_diffrn_reflns_limit_h_min       -13
_diffrn_reflns_limit_k_max       13
_diffrn_reflns_limit_k_min       -12
_diffrn_reflns_limit_l_max       18
_diffrn_reflns_limit_l_min       -18
_diffrn_reflns_number            12505
_diffrn_reflns_theta_full        26.37
_diffrn_reflns_theta_max         26.37
_diffrn_reflns_theta_min         3.22
_diffrn_standards_decay_%        0
_diffrn_standards_interval_count 0
_diffrn_standards_interval_time  0
_diffrn_standards_number         0
_exptl_absorpt_coefficient_mu    0.676
_exptl_absorpt_correction_T_max  0.9454
_exptl_absorpt_correction_T_min  0.7557
_exptl_absorpt_correction_type   gaussian
_exptl_absorpt_process_details
;
        a grid of  8 x  8 x  8 =   512 sampling points was used
;
_exptl_crystal_colour            green
_exptl_crystal_density_diffrn    1.365
_exptl_crystal_density_method    'not measured'
_exptl_crystal_description       prism
_exptl_crystal_F_000             694
_exptl_crystal_size_max          0.36
_exptl_crystal_size_mid          0.19
_exptl_crystal_size_min          0.09
_refine_diff_density_max         1.177
_refine_diff_density_min         -0.858
_refine_diff_density_rms         0.089
_refine_ls_extinction_method     none
_refine_ls_goodness_of_fit_ref   1.026
_refine_ls_hydrogen_treatment    constr
_refine_ls_matrix_type           full
_refine_ls_number_parameters     377
_refine_ls_number_reflns         6608
_refine_ls_number_restraints     0
_refine_ls_restrained_S_all      1.026
_refine_ls_R_factor_all          0.0543
_refine_ls_R_factor_gt           0.0407
_refine_ls_shift/su_max          0.009
_refine_ls_shift/su_mean         0.000
_refine_ls_structure_factor_coef Fsqd
_refine_ls_weighting_details
'calc w=1/[\s^2^(Fo^2^)+(0.0363P)^2^+0.0000P] where P=(Fo^2^+2Fc^2^)/3'
_refine_ls_weighting_scheme      calc
_refine_ls_wR_factor_gt          0.0859
_refine_ls_wR_factor_ref         0.0903
_reflns_number_gt                5117
_reflns_number_total             6608
_reflns_threshold_expression     >2\s(I)
_cod_data_source_file            om200463u_si_004.cif
_cod_data_source_block           Ket2
_cod_database_code               4064964
loop_
_space_group_symop_operation_xyz
'x, y, z'
'-x, -y, -z'
loop_
_atom_site_label
_atom_site_type_symbol
_atom_site_fract_x
_atom_site_fract_y
_atom_site_fract_z
_atom_site_U_iso_or_equiv
_atom_site_adp_type
_atom_site_occupancy
_atom_site_symmetry_multiplicity
_atom_site_calc_flag
_atom_site_refinement_flags
C1 C 0.7220(3) 0.1581(3) 0.7912(2) 0.0189(6) Uani 1 1 d .
C2 C 0.6670(3) -0.0004(3) 0.9228(2) 0.0308(8) Uani 1 1 d .
H2A H 0.6100 -0.0495 0.9202 0.037 Uiso 1 1 calc R
H2B H 0.6622 -0.0008 0.9877 0.037 Uiso 1 1 calc R
C3 C 0.8081(3) -0.0553(3) 0.8731(2) 0.0344(8) Uani 1 1 d .
H3A H 0.8699 -0.0710 0.9124 0.041 Uiso 1 1 calc R
H3B H 0.8191 -0.1364 0.8544 0.041 Uiso 1 1 calc R
C4 C 0.8479(3) 0.3007(3) 0.6158(2) 0.0229(7) Uani 1 1 d .
H4 H 0.9226 0.2375 0.6331 0.028 Uiso 1 1 calc R
C5 C 0.5169(3) 0.5908(3) 0.5875(2) 0.0268(7) Uani 1 1 d .
H5A H 0.4796 0.6108 0.5327 0.032 Uiso 1 1 calc R
H5B H 0.5380 0.6676 0.5908 0.032 Uiso 1 1 calc R
C6 C 0.4176(3) 0.5559(3) 0.6741(2) 0.0254(7) Uani 1 1 d .
C7 C 0.2890(4) 0.6596(3) 0.6901(3) 0.0427(10) Uani 1 1 d .
H7A H 0.2422 0.6693 0.6420 0.051 Uiso 1 1 calc R
H7B H 0.3075 0.7419 0.6828 0.051 Uiso 1 1 calc R
C8 C 0.1990(4) 0.6350(4) 0.7841(3) 0.0574(12) Uani 1 1 d .
H8A H 0.1718 0.5588 0.7896 0.086 Uiso 1 1 calc R
H8B H 0.1223 0.7093 0.7900 0.086 Uiso 1 1 calc R
H8C H 0.2453 0.6210 0.8326 0.086 Uiso 1 1 calc R
C11 C 0.9564(3) 0.0356(3) 0.7336(2) 0.0229(7) Uani 1 1 d .
C12 C 0.9946(3) -0.0301(3) 0.6592(2) 0.0266(7) Uani 1 1 d .
C13 C 1.1195(3) -0.0347(3) 0.6014(2) 0.0305(8) Uani 1 1 d .
H13 H 1.1457 -0.0756 0.5502 0.037 Uiso 1 1 calc R
C14 C 1.2063(3) 0.0199(3) 0.6178(2) 0.0311(8) Uani 1 1 d .
C15 C 1.1655(3) 0.0781(3) 0.6963(2) 0.0293(7) Uani 1 1 d .
H15 H 1.2239 0.1117 0.7098 0.035 Uiso 1 1 calc R
C16 C 1.0417(3) 0.0878(3) 0.7550(2) 0.0262(7) Uani 1 1 d .
C17 C 0.9046(4) -0.0925(3) 0.6402(3) 0.0380(9) Uani 1 1 d .
H17A H 0.9402 -0.1175 0.5801 0.057 Uiso 1 1 calc R
H17B H 0.8182 -0.0312 0.6407 0.057 Uiso 1 1 calc R
H17C H 0.8979 -0.1687 0.6878 0.057 Uiso 1 1 calc R
C18 C 1.3386(4) 0.0166(4) 0.5528(3) 0.0459(10) Uani 1 1 d .
H18A H 1.3823 -0.0703 0.5407 0.069 Uiso 1 1 calc R
H18B H 1.3920 0.0417 0.5812 0.069 Uiso 1 1 calc R
H18C H 1.3261 0.0764 0.4950 0.069 Uiso 1 1 calc R
C19 C 0.9987(3) 0.1589(4) 0.8352(3) 0.0387(9) Uani 1 1 d .
H19A H 0.9287 0.2375 0.8229 0.058 Uiso 1 1 calc R
H19B H 1.0724 0.1810 0.8422 0.058 Uiso 1 1 calc R
H19C H 0.9674 0.1037 0.8918 0.058 Uiso 1 1 calc R
C21 C 0.5111(3) 0.2234(3) 0.9103(2) 0.0225(7) Uani 1 1 d .
C22 C 0.5178(3) 0.2857(3) 0.9775(2) 0.0260(7) Uani 1 1 d .
C23 C 0.4007(3) 0.3618(3) 1.0236(2) 0.0304(8) Uani 1 1 d .
H23 H 0.4040 0.4048 1.0674 0.036 Uiso 1 1 calc R
C24 C 0.2784(3) 0.3757(3) 1.0060(2) 0.0309(8) Uani 1 1 d .
C25 C 0.2755(3) 0.3113(3) 0.9407(2) 0.0285(7) Uani 1 1 d .
H25 H 0.1941 0.3202 0.9285 0.034 Uiso 1 1 calc R
C26 C 0.3898(3) 0.2334(3) 0.8922(2) 0.0241(7) Uani 1 1 d .
C27 C 0.6476(3) 0.2677(4) 1.0027(2) 0.0349(8) Uani 1 1 d .
H27A H 0.6362 0.3324 1.0380 0.052 Uiso 1 1 calc R
H27B H 0.7140 0.2774 0.9465 0.052 Uiso 1 1 calc R
H27C H 0.6750 0.1819 1.0396 0.052 Uiso 1 1 calc R
C28 C 0.1518(4) 0.4581(4) 1.0586(3) 0.0480(10) Uani 1 1 d .
H28A H 0.1316 0.5462 1.0238 0.072 Uiso 1 1 calc R
H28B H 0.1635 0.4581 1.1190 0.072 Uiso 1 1 calc R
H28C H 0.0803 0.4221 1.0663 0.072 Uiso 1 1 calc R
C29 C 0.3795(3) 0.1629(3) 0.8239(2) 0.0346(8) Uani 1 1 d .
H29A H 0.3010 0.1340 0.8469 0.052 Uiso 1 1 calc R
H29B H 0.4559 0.0885 0.8167 0.052 Uiso 1 1 calc R
H29C H 0.3751 0.2209 0.7645 0.052 Uiso 1 1 calc R
C31 C 0.8563(3) 0.3917(3) 0.5266(2) 0.0214(6) Uani 1 1 d .
C32 C 0.9726(3) 0.3871(3) 0.4586(2) 0.0268(7) Uani 1 1 d .
H32 H 1.0504 0.3231 0.4693 0.032 Uiso 1 1 calc R
C33 C 0.9736(3) 0.4773(3) 0.3746(2) 0.0323(8) Uani 1 1 d .
H33 H 1.0511 0.4728 0.3287 0.039 Uiso 1 1 calc R
C34 C 0.8576(4) 0.5740(3) 0.3600(2) 0.0369(9) Uani 1 1 d .
H34 H 0.8587 0.6343 0.3039 0.044 Uiso 1 1 calc R
C35 C 0.7396(3) 0.5837(3) 0.4269(2) 0.0302(8) Uani 1 1 d .
H35 H 0.6625 0.6494 0.4167 0.036 Uiso 1 1 calc R
C36 C 0.7416(3) 0.4914(3) 0.5092(2) 0.0227(7) Uani 1 1 d .
N1 N 0.6306(2) 0.1336(2) 0.86962(17) 0.0221(6) Uani 1 1 d .
N2 N 0.8266(2) 0.0482(2) 0.79129(17) 0.0221(6) Uani 1 1 d .
O1 O 0.6332(2) 0.48474(19) 0.58007(15) 0.0297(5) Uani 1 1 d .
O2 O 0.4408(2) 0.4505(2) 0.72597(16) 0.0340(6) Uani 1 1 d .
Cl1 Cl 0.69839(9) 0.45930(8) 0.77749(6) 0.0345(2) Uani 1 1 d .
Cl2 Cl 0.60966(8) 0.20288(8) 0.61592(6) 0.03089(19) Uani 1 1 d .
Ru1 Ru 0.68334(2) 0.31609(2) 0.692790(17) 0.02076(9) Uani 1 1 d .
O100 O 0.6503(8) 0.7522(5) 0.6682(4) 0.078(2) Uani 0.50 1 d P
H100 H 0.6334 0.6817 0.6876 0.116 Uiso 0.50 1 calc PR
C100 C 0.5828(8) 0.8297(6) 0.7271(5) 0.0346(17) Uani 0.50 1 d P
H10A H 0.6373 0.8265 0.7678 0.052 Uiso 0.50 1 calc PR
H10B H 0.5064 0.8023 0.7637 0.052 Uiso 0.50 1 calc PR
H10C H 0.5550 0.9177 0.6934 0.052 Uiso 0.50 1 calc PR
loop_
_atom_site_aniso_label
_atom_site_aniso_U_11
_atom_site_aniso_U_22
_atom_site_aniso_U_33
_atom_site_aniso_U_23
_atom_site_aniso_U_13
_atom_site_aniso_U_12
C1 0.0190(15) 0.0215(15) 0.0194(16) -0.0032(12) -0.0039(12) -0.0105(12)
C2 0.0310(18) 0.0231(16) 0.0289(19) 0.0083(14) -0.0034(15) -0.0087(14)
C3 0.0294(18) 0.0261(17) 0.032(2) 0.0111(15) -0.0015(15) -0.0054(14)
C4 0.0284(17) 0.0181(15) 0.0189(16) -0.0013(12) -0.0059(13) -0.0032(13)
C5 0.0281(17) 0.0182(15) 0.0251(17) 0.0005(13) -0.0049(14) 0.0004(13)
C6 0.0259(17) 0.0213(16) 0.0260(18) -0.0021(13) -0.0061(14) -0.0042(13)
C7 0.036(2) 0.0284(19) 0.048(2) -0.0004(17) -0.0059(18) 0.0034(16)
C8 0.036(2) 0.055(3) 0.051(3) -0.007(2) 0.0032(19) 0.0124(19)
C11 0.0207(15) 0.0159(14) 0.0265(17) 0.0008(12) -0.0064(13) -0.0009(12)
C12 0.0290(17) 0.0147(15) 0.0294(18) 0.0001(13) -0.0089(14) 0.0012(13)
C13 0.0337(19) 0.0222(16) 0.0260(18) -0.0035(13) -0.0035(15) 0.0012(14)
C14 0.0269(18) 0.0263(17) 0.0279(19) -0.0010(14) -0.0018(14) 0.0015(14)
C15 0.0240(17) 0.0325(18) 0.0293(19) -0.0049(14) -0.0061(14) -0.0057(14)
C16 0.0239(16) 0.0234(16) 0.0249(18) -0.0027(13) -0.0061(13) 0.0006(13)
C17 0.045(2) 0.0285(18) 0.042(2) -0.0087(16) -0.0114(18) -0.0090(16)
C18 0.033(2) 0.052(2) 0.043(2) -0.0133(18) 0.0068(17) -0.0081(18)
C19 0.0301(19) 0.048(2) 0.040(2) -0.0178(17) -0.0015(16) -0.0114(17)
C21 0.0234(16) 0.0215(15) 0.0179(16) 0.0022(12) 0.0012(13) -0.0095(13)
C22 0.0221(16) 0.0302(17) 0.0240(17) -0.0004(13) -0.0038(13) -0.0099(13)
C23 0.0299(18) 0.0349(19) 0.0275(19) -0.0076(15) -0.0026(15) -0.0122(15)
C24 0.0240(17) 0.0303(18) 0.033(2) -0.0049(15) -0.0019(15) -0.0054(14)
C25 0.0220(16) 0.0320(18) 0.0292(19) 0.0020(14) -0.0077(14) -0.0087(14)
C26 0.0233(16) 0.0240(16) 0.0226(17) 0.0041(13) -0.0049(13) -0.0104(13)
C27 0.0276(18) 0.048(2) 0.031(2) -0.0082(16) -0.0058(15) -0.0139(16)
C28 0.030(2) 0.059(3) 0.052(3) -0.024(2) 0.0001(18) -0.0049(18)
C29 0.0325(19) 0.041(2) 0.033(2) -0.0055(16) -0.0080(16) -0.0140(16)
C31 0.0237(16) 0.0190(15) 0.0227(16) -0.0033(12) -0.0039(13) -0.0090(12)
C32 0.0306(18) 0.0243(16) 0.0277(18) -0.0059(13) -0.0035(14) -0.0118(14)
C33 0.0361(19) 0.0352(19) 0.0252(18) -0.0025(14) 0.0032(15) -0.0202(16)
C34 0.050(2) 0.0300(19) 0.0247(19) 0.0079(15) -0.0050(17) -0.0167(17)
C35 0.0353(19) 0.0254(17) 0.0261(18) 0.0057(14) -0.0081(15) -0.0106(14)
C36 0.0240(16) 0.0210(15) 0.0219(17) -0.0001(12) -0.0018(13) -0.0102(13)
N1 0.0211(13) 0.0179(12) 0.0196(14) 0.0044(10) -0.0019(11) -0.0041(10)
N2 0.0207(13) 0.0178(12) 0.0214(14) 0.0045(10) -0.0029(11) -0.0051(10)
O1 0.0279(12) 0.0216(11) 0.0236(12) 0.0083(9) -0.0020(10) 0.0005(9)
O2 0.0289(12) 0.0244(12) 0.0335(14) 0.0063(10) -0.0025(10) -0.0010(10)
Cl1 0.0439(5) 0.0261(4) 0.0345(5) -0.0107(3) -0.0002(4) -0.0139(4)
Cl2 0.0349(4) 0.0323(4) 0.0279(4) -0.0026(3) -0.0138(4) -0.0092(4)
Ru1 0.02083(14) 0.01681(13) 0.01984(14) 0.00074(9) -0.00320(10) -0.00350(9)
O100 0.166(7) 0.028(3) 0.058(4) 0.022(3) -0.061(5) -0.043(4)
C100 0.059(5) 0.021(3) 0.037(4) 0.002(3) -0.022(4) -0.024(3)
loop_
_atom_type_symbol
_atom_type_description
_atom_type_scat_dispersion_real
_atom_type_scat_dispersion_imag
_atom_type_scat_source
C C 0.0033 0.0016 'International Tables Vol C Tables 4.2.6.8 and 6.1.1.4'
H H 0 0 'International Tables Vol C Tables 4.2.6.8 and 6.1.1.4'
N N 0.0061 0.0033 'International Tables Vol C Tables 4.2.6.8 and 6.1.1.4'
O O 0.0106 0.006 'International Tables Vol C Tables 4.2.6.8 and 6.1.1.4'
Cl Cl 0.1484 0.1585 'International Tables Vol C Tables 4.2.6.8 and 6.1.1.4'
Ru Ru -1.2594 0.8363 'International Tables Vol C Tables 4.2.6.8 and 6.1.1.4'
loop_
_exptl_crystal_face_index_h
_exptl_crystal_face_index_k
_exptl_crystal_face_index_l
_exptl_crystal_face_perp_dist
0 0 1 0.045
0 0 -1 0.045
0 1 1 0.183
0 -1 -1 0.183
1 1 0 0.097
-1 -1 0 0.097
loop_
_geom_angle_atom_site_label_1
_geom_angle_atom_site_label_2
_geom_angle_atom_site_label_3
_geom_angle
N1 C1 N2 106.2(2)
N1 C1 Ru1 122.3(2)
N2 C1 Ru1 130.8(2)
N1 C2 C3 102.7(2)
N1 C2 H2A 111.2
C3 C2 H2A 111.2
N1 C2 H2B 111.2
C3 C2 H2B 111.2
H2A C2 H2B 109.1
N2 C3 C2 103.0(2)
N2 C3 H3A 111.2
C2 C3 H3A 111.2
N2 C3 H3B 111.2
C2 C3 H3B 111.2
H3A C3 H3B 109.1
C31 C4 Ru1 117.0(2)
C31 C4 H4 121.5
Ru1 C4 H4 121.5
O1 C5 C6 109.6(2)
O1 C5 H5A 109.8
C6 C5 H5A 109.8
O1 C5 H5B 109.8
C6 C5 H5B 109.8
H5A C5 H5B 108.2
O2 C6 C7 122.9(3)
O2 C6 C5 122.0(3)
C7 C6 C5 115.2(3)
C6 C7 C8 115.3(3)
C6 C7 H7A 108.5
C8 C7 H7A 108.5
C6 C7 H7B 108.5
C8 C7 H7B 108.5
H7A C7 H7B 107.5
C7 C8 H8A 109.5
C7 C8 H8B 109.5
H8A C8 H8B 109.5
C7 C8 H8C 109.5
H8A C8 H8C 109.5
H8B C8 H8C 109.5
C12 C11 C16 122.2(3)
C12 C11 N2 119.2(3)
C16 C11 N2 118.6(3)
C11 C12 C13 117.7(3)
C11 C12 C17 121.7(3)
C13 C12 C17 120.6(3)
C14 C13 C12 122.1(3)
C14 C13 H13 118.9
C12 C13 H13 118.9
C13 C14 C15 117.6(3)
C13 C14 C18 120.9(3)
C15 C14 C18 121.5(3)
C16 C15 C14 122.6(3)
C16 C15 H15 118.7
C14 C15 H15 118.7
C15 C16 C11 117.6(3)
C15 C16 C19 120.8(3)
C11 C16 C19 121.5(3)
C12 C17 H17A 109.5
C12 C17 H17B 109.5
H17A C17 H17B 109.5
C12 C17 H17C 109.5
H17A C17 H17C 109.5
H17B C17 H17C 109.5
C14 C18 H18A 109.5
C14 C18 H18B 109.5
H18A C18 H18B 109.5
C14 C18 H18C 109.5
H18A C18 H18C 109.5
H18B C18 H18C 109.5
C16 C19 H19A 109.5
C16 C19 H19B 109.5
H19A C19 H19B 109.5
C16 C19 H19C 109.5
H19A C19 H19C 109.5
H19B C19 H19C 109.5
C26 C21 C22 121.3(3)
C26 C21 N1 120.0(3)
C22 C21 N1 118.2(3)
C23 C22 C21 118.2(3)
C23 C22 C27 119.9(3)
C21 C22 C27 121.8(3)
C24 C23 C22 121.9(3)
C24 C23 H23 119.0
C22 C23 H23 119.0
C25 C24 C23 118.2(3)
C25 C24 C28 121.2(3)
C23 C24 C28 120.6(3)
C24 C25 C26 122.6(3)
C24 C25 H25 118.7
C26 C25 H25 118.7
C25 C26 C21 117.8(3)
C25 C26 C29 120.0(3)
C21 C26 C29 122.3(3)
C22 C27 H27A 109.5
C22 C27 H27B 109.5
H27A C27 H27B 109.5
C22 C27 H27C 109.5
H27A C27 H27C 109.5
H27B C27 H27C 109.5
C24 C28 H28A 109.5
C24 C28 H28B 109.5
H28A C28 H28B 109.5
C24 C28 H28C 109.5
H28A C28 H28C 109.5
H28B C28 H28C 109.5
C26 C29 H29A 109.5
C26 C29 H29B 109.5
H29A C29 H29B 109.5
C26 C29 H29C 109.5
H29A C29 H29C 109.5
H29B C29 H29C 109.5
C32 C31 C36 118.2(3)
C32 C31 C4 123.7(3)
C36 C31 C4 118.1(3)
C33 C32 C31 120.7(3)
C33 C32 H32 119.7
C31 C32 H32 119.7
C34 C33 C32 119.2(3)
C34 C33 H33 120.4
C32 C33 H33 120.4
C33 C34 C35 122.0(3)
C33 C34 H34 119.0
C35 C34 H34 119.0
C36 C35 C34 117.3(3)
C36 C35 H35 121.3
C34 C35 H35 121.3
O1 C36 C35 124.4(3)
O1 C36 C31 113.0(2)
C35 C36 C31 122.6(3)
C1 N1 C21 128.7(2)
C1 N1 C2 113.8(2)
C21 N1 C2 117.2(2)
C1 N2 C11 126.8(2)
C1 N2 C3 113.6(2)
C11 N2 C3 118.1(2)
C36 O1 C5 122.0(2)
C36 O1 Ru1 111.05(16)
C5 O1 Ru1 125.25(18)
C4 Ru1 C1 100.64(12)
C4 Ru1 O1 80.58(10)
C1 Ru1 O1 176.05(10)
C4 Ru1 Cl1 96.21(10)
C1 Ru1 Cl1 94.82(9)
O1 Ru1 Cl1 88.76(7)
C4 Ru1 Cl2 96.43(10)
C1 Ru1 Cl2 90.43(8)
O1 Ru1 Cl2 85.69(7)
Cl1 Ru1 Cl2 165.17(3)
C100 O100 H100 109.5
O100 C100 H10A 109.5
O100 C100 H10B 109.5
H10A C100 H10B 109.5
O100 C100 H10C 109.5
H10A C100 H10C 109.5
H10B C100 H10C 109.5
loop_
_geom_bond_atom_site_label_1
_geom_bond_atom_site_label_2
_geom_bond_distance
C1 N1 1.354(4)
C1 N2 1.360(4)
C1 Ru1 1.980(3)
C2 N1 1.466(3)
C2 C3 1.512(4)
C2 H2A 0.9700
C2 H2B 0.9700
C3 N2 1.465(4)
C3 H3A 0.9700
C3 H3B 0.9700
C4 C31 1.455(4)
C4 Ru1 1.832(3)
C4 H4 0.9300
C5 O1 1.412(3)
C5 C6 1.505(4)
C5 H5A 0.9700
C5 H5B 0.9700
C6 O2 1.209(3)
C6 C7 1.493(4)
C7 C8 1.503(5)
C7 H7A 0.9700
C7 H7B 0.9700
C8 H8A 0.9600
C8 H8B 0.9600
C8 H8C 0.9600
C11 C12 1.394(4)
C11 C16 1.396(4)
C11 N2 1.428(4)
C12 C13 1.395(4)
C12 C17 1.505(5)
C13 C14 1.391(5)
C13 H13 0.9300
C14 C15 1.395(5)
C14 C18 1.502(5)
C15 C16 1.385(4)
C15 H15 0.9300
C16 C19 1.504(4)
C17 H17A 0.9600
C17 H17B 0.9600
C17 H17C 0.9600
C18 H18A 0.9600
C18 H18B 0.9600
C18 H18C 0.9600
C19 H19A 0.9600
C19 H19B 0.9600
C19 H19C 0.9600
C21 C26 1.396(4)
C21 C22 1.405(4)
C21 N1 1.440(4)
C22 C23 1.387(5)
C22 C27 1.513(4)
C23 C24 1.391(4)
C23 H23 0.9300
C24 C25 1.379(5)
C24 C28 1.517(5)
C25 C26 1.394(4)
C25 H25 0.9300
C26 C29 1.501(5)
C27 H27A 0.9600
C27 H27B 0.9600
C27 H27C 0.9600
C28 H28A 0.9600
C28 H28B 0.9600
C28 H28C 0.9600
C29 H29A 0.9600
C29 H29B 0.9600
C29 H29C 0.9600
C31 C32 1.392(4)
C31 C36 1.401(4)
C32 C33 1.392(4)
C32 H32 0.9300
C33 C34 1.387(5)
C33 H33 0.9300
C34 C35 1.392(5)
C34 H34 0.9300
C35 C36 1.386(4)
C35 H35 0.9300
C36 O1 1.367(3)
O1 Ru1 2.1991(19)
Cl1 Ru1 2.3608(9)
Cl2 Ru1 2.3620(9)
O100 C100 1.300(9)
O100 H100 0.8200
C100 H10A 0.9600
C100 H10B 0.9600
C100 H10C 0.9600
loop_
_geom_hbond_atom_site_label_D
_geom_hbond_atom_site_label_H
_geom_hbond_atom_site_label_A
_geom_hbond_distance_DH
_geom_hbond_distance_HA
_geom_hbond_distance_DA
_geom_hbond_angle_DHA
O100 H100 Cl1 0.82 2.45 3.159(5) 145.9
#------------------------------------------------------------------------------
#$Date: 2016-03-21 06:59:19 +0200 (Mon, 21 Mar 2016) $
#$Revision: 178543 $
#$URL: svn://www.crystallography.net/cod/cif/4/06/49/4064965.cif $
#------------------------------------------------------------------------------
#
# This file is available in the Crystallography Open Database (COD),
# http://www.crystallography.net/
#
# All data on this site have been placed in the public domain by the
# contributors.
#
data_4064965
loop_
_publ_author_name
'Bieniek, Micha\/l'
'Samoj\/lowicz, Cezary'
'Sashuk, Volodymyr'
'Bujok, Robert'
'\'Sled\'z, Pawe\/l'
'Lugan, No\"el'
'Lavigne, Guy'
'Arlt, Dieter'
'Grela, Karol'
_publ_section_title
;
 Rational Design and Evaluation of Upgraded Grubbs/Hoveyda Olefin
 Metathesis Catalysts: Polyfunctional Benzylidene Ethers on the Test Bench
;
_journal_issue                   15
_journal_name_full               Organometallics
_journal_page_first              4144
_journal_paper_doi               10.1021/om200463u
_journal_volume                  30
_journal_year                    2011
_chemical_compound_source        'synthesis as described'
_chemical_formula_moiety         'C31 H36 Cl2 N2 O2 Ru, 2(C H2 Cl2)'
_chemical_formula_sum            'C33 H40 Cl6 N2 O2 Ru'
_chemical_formula_weight         810.44
_chemical_name_systematic
;
 ?
;
_space_group_IT_number           2
_symmetry_cell_setting           triclinic
_symmetry_Int_Tables_number      2
_symmetry_space_group_name_Hall  '-P 1'
_symmetry_space_group_name_H-M   'P -1'
_atom_sites_solution_hydrogens   geom
_atom_sites_solution_primary     direct
_atom_sites_solution_secondary   difmap
_audit_creation_date             2011-05-24T10:02:31-00:00
_audit_creation_method           'WinGX routine CIF_UPDATE'
_cell_angle_alpha                106.60(4)
_cell_angle_beta                 93.07(5)
_cell_angle_gamma                117.141(11)
_cell_formula_units_Z            2
_cell_length_a                   11.913(9)
_cell_length_b                   11.970(7)
_cell_length_c                   15.284(10)
_cell_measurement_reflns_used    4586
_cell_measurement_temperature    180(2)
_cell_measurement_theta_max      38.34
_cell_measurement_theta_min      2.17
_cell_measurement_wavelength     0.71073
_cell_volume                     1815(2)
_computing_structure_refinement  'SHELXL-97 (Sheldrick, 1997)'
_diffrn_ambient_temperature      180(2)
_diffrn_measured_fraction_theta_full 0.993
_diffrn_measured_fraction_theta_max 0.993
_diffrn_measurement_device_type  'Bruker APEX II'
_diffrn_measurement_method       'phi and omega scans'
_diffrn_radiation_monochromator  graphite
_diffrn_radiation_probe          x-ray
_diffrn_radiation_type           MoK\a
_diffrn_radiation_wavelength     0.71073
_diffrn_reflns_av_R_equivalents  0.0175
_diffrn_reflns_av_unetI/netI     0.0117
_diffrn_reflns_limit_h_max       16
_diffrn_reflns_limit_h_min       -16
_diffrn_reflns_limit_k_max       16
_diffrn_reflns_limit_k_min       -16
_diffrn_reflns_limit_l_max       21
_diffrn_reflns_limit_l_min       -21
_diffrn_reflns_number            54028
_diffrn_reflns_theta_full        29.83
_diffrn_reflns_theta_max         29.83
_diffrn_reflns_theta_min         2.67
_diffrn_standards_decay_%        0
_diffrn_standards_interval_count 0
_diffrn_standards_number         0
_exptl_absorpt_coefficient_mu    0.905
_exptl_absorpt_correction_T_max  0.902
_exptl_absorpt_correction_T_min  0.708
_exptl_absorpt_correction_type   multi-scan
_exptl_absorpt_process_details
;
'SADABS, Sheldrick, Bruker, 2000'
;
_exptl_crystal_colour            green
_exptl_crystal_density_diffrn    1.483
_exptl_crystal_density_method    'not measured'
_exptl_crystal_description       needle
_exptl_crystal_F_000             828
_exptl_crystal_size_max          0.42
_exptl_crystal_size_mid          0.20
_exptl_crystal_size_min          0.12
_refine_diff_density_max         2.054
_refine_diff_density_min         -1.656
_refine_diff_density_rms         0.073
_refine_ls_extinction_method     none
_refine_ls_goodness_of_fit_ref   1.073
_refine_ls_hydrogen_treatment    riding
_refine_ls_matrix_type           full
_refine_ls_number_parameters     404
_refine_ls_number_reflns         10379
_refine_ls_number_restraints     0
_refine_ls_restrained_S_all      1.073
_refine_ls_R_factor_all          0.0408
_refine_ls_R_factor_gt           0.0363
_refine_ls_shift/su_max          0.002
_refine_ls_shift/su_mean         0
_refine_ls_structure_factor_coef Fsqd
_refine_ls_weighting_details
'calc w=1/[\s^2^(Fo^2^)+(0.0326P)^2^+2.4350P] where P=(Fo^2^+2Fc^2^)/3'
_refine_ls_weighting_scheme      calc
_refine_ls_wR_factor_gt          0.087
_refine_ls_wR_factor_ref         0.092
_reflns_number_gt                9554
_reflns_number_total             10379
_reflns_threshold_expression     >2sigma(I)
_cod_data_source_file            om200463u_si_004.cif
_cod_data_source_block           Kme2
_cod_database_code               4064965
loop_
_symmetry_equiv_pos_as_xyz
'x, y, z'
'-x, -y, -z'
loop_
_atom_site_label
_atom_site_type_symbol
_atom_site_fract_x
_atom_site_fract_y
_atom_site_fract_z
_atom_site_U_iso_or_equiv
_atom_site_adp_type
_atom_site_occupancy
_atom_site_symmetry_multiplicity
_atom_site_calc_flag
_atom_site_refinement_flags
C1 C 0.7368(2) -0.6357(2) 0.71122(13) 0.0283(4) Uani 1 1 d .
C3 C 0.8600(3) -0.7219(3) 0.6312(2) 0.0538(7) Uani 1 1 d .
H3A H 0.9081 -0.756 0.6578 0.065 Uiso 1 1 calc R
H3B H 0.8984 -0.6929 0.5818 0.065 Uiso 1 1 calc R
C2 C 0.7195(3) -0.8260(3) 0.5952(2) 0.0568(8) Uani 1 1 d .
H2A H 0.6935 -0.8486 0.5285 0.068 Uiso 1 1 calc R
H2B H 0.7012 -0.9067 0.6081 0.068 Uiso 1 1 calc R
C4 C 0.8231(2) -0.3766(2) 0.85869(15) 0.0332(4) Uani 1 1 d .
H4 H 0.9024 -0.363 0.8448 0.04 Uiso 1 1 calc R
C5 C 0.46290(19) -0.4533(2) 0.88284(14) 0.0289(4) Uani 1 1 d .
H5A H 0.4338 -0.3913 0.8778 0.035 Uiso 1 1 calc R
H5B H 0.4554 -0.4628 0.9435 0.035 Uiso 1 1 calc R
C6 C 0.3805(2) -0.5876(2) 0.80636(14) 0.0287(4) Uani 1 1 d .
C7 C 0.2389(2) -0.6499(2) 0.80335(18) 0.0401(5) Uani 1 1 d .
H7A H 0.1964 -0.7414 0.7618 0.06 Uiso 1 1 calc R
H7B H 0.205 -0.6015 0.7813 0.06 Uiso 1 1 calc R
H7C H 0.2243 -0.6468 0.865 0.06 Uiso 1 1 calc R
C11 C 0.9776(2) -0.4998(2) 0.75964(15) 0.0334(4) Uani 1 1 d .
C12 C 1.0418(2) -0.3927(3) 0.72823(17) 0.0379(5) Uani 1 1 d .
C13 C 1.1587(2) -0.2857(3) 0.78373(18) 0.0401(5) Uani 1 1 d .
H13 H 1.2021 -0.2132 0.7642 0.048 Uiso 1 1 calc R
C14 C 1.2129(2) -0.2831(2) 0.86732(17) 0.0378(5) Uani 1 1 d .
C15 C 1.1470(2) -0.3928(2) 0.89529(17) 0.0376(5) Uani 1 1 d .
H15 H 1.1824 -0.3929 0.951 0.045 Uiso 1 1 calc R
C16 C 1.0294(2) -0.5021(2) 0.84213(16) 0.0344(4) Uani 1 1 d .
C17 C 0.9855(3) -0.3922(4) 0.6382(2) 0.0596(8) Uani 1 1 d .
H17A H 0.9696 -0.4708 0.5879 0.089 Uiso 1 1 calc R
H17B H 1.0451 -0.3138 0.6263 0.089 Uiso 1 1 calc R
H17C H 0.9057 -0.3915 0.6429 0.089 Uiso 1 1 calc R
C18 C 1.3415(3) -0.1665(3) 0.9252(2) 0.0540(7) Uani 1 1 d .
H18A H 1.4087 -0.1659 0.8931 0.081 Uiso 1 1 calc R
H18B H 1.3575 -0.1751 0.9846 0.081 Uiso 1 1 calc R
H18C H 1.34 -0.0844 0.935 0.081 Uiso 1 1 calc R
C19 C 0.9599(3) -0.6191(3) 0.8745(2) 0.0472(6) Uani 1 1 d .
H19A H 1.0105 -0.6036 0.9321 0.071 Uiso 1 1 calc R
H19B H 0.9476 -0.6994 0.8279 0.071 Uiso 1 1 calc R
H19C H 0.8775 -0.6287 0.884 0.071 Uiso 1 1 calc R
C21 C 0.5173(2) -0.8283(2) 0.63258(14) 0.0303(4) Uani 1 1 d .
C22 C 0.4566(3) -0.9103(2) 0.68356(16) 0.0373(5) Uani 1 1 d .
C23 C 0.3229(3) -0.9726(2) 0.66843(19) 0.0454(6) Uani 1 1 d .
H23 H 0.281 -1.0264 0.7026 0.054 Uiso 1 1 calc R
C24 C 0.2499(2) -0.9573(2) 0.6044(2) 0.0463(6) Uani 1 1 d .
C25 C 0.3123(3) -0.8835(2) 0.55042(17) 0.0417(5) Uani 1 1 d .
H25 H 0.2637 -0.8758 0.5052 0.05 Uiso 1 1 calc R
C26 C 0.4452(2) -0.8205(2) 0.56154(14) 0.0344(4) Uani 1 1 d .
C27 C 0.5301(4) -0.9375(3) 0.7501(2) 0.0606(8) Uani 1 1 d .
H27A H 0.5182 -1.0259 0.7221 0.091 Uiso 1 1 calc R
H27B H 0.4987 -0.931 0.8069 0.091 Uiso 1 1 calc R
H27C H 0.6203 -0.8729 0.7639 0.091 Uiso 1 1 calc R
C28 C 0.1054(3) -1.0207(4) 0.5926(3) 0.0816(12) Uani 1 1 d .
H28A H 0.0826 -0.9525 0.6175 0.122 Uiso 1 1 calc R
H28B H 0.0762 -1.0828 0.6254 0.122 Uiso 1 1 calc R
H28C H 0.0652 -1.0674 0.5274 0.122 Uiso 1 1 calc R
C29 C 0.5076(3) -0.7530(3) 0.49449(18) 0.0523(7) Uani 1 1 d .
H29A H 0.5169 -0.8154 0.4439 0.078 Uiso 1 1 calc R
H29B H 0.5912 -0.6776 0.5265 0.078 Uiso 1 1 calc R
H29C H 0.4546 -0.7231 0.4703 0.078 Uiso 1 1 calc R
C31 C 0.8128(2) -0.2812(2) 0.93719(14) 0.0291(4) Uani 1 1 d .
C32 C 0.9195(2) -0.1726(2) 1.00457(15) 0.0350(4) Uani 1 1 d .
H32 H 1.0023 -0.1571 0.9992 0.042 Uiso 1 1 calc R
C33 C 0.9028(3) -0.0879(2) 1.07940(16) 0.0425(5) Uani 1 1 d .
H33 H 0.9743 -0.0156 1.1238 0.051 Uiso 1 1 calc R
C34 C 0.7801(3) -0.1105(2) 1.08807(16) 0.0427(5) Uani 1 1 d .
H34 H 0.77 -0.0534 1.1388 0.051 Uiso 1 1 calc R
C35 C 0.6714(2) -0.2169(2) 1.02229(15) 0.0341(4) Uani 1 1 d .
H35 H 0.5888 -0.2323 1.0283 0.041 Uiso 1 1 calc R
C36 C 0.6904(2) -0.2989(2) 0.94773(13) 0.0284(4) Uani 1 1 d .
C100 C 0.3290(2) -0.5413(3) 0.58135(18) 0.0429(5) Uani 1 1 d .
H10A H 0.3573 -0.5167 0.528 0.052 Uiso 1 1 calc R
H10B H 0.383 -0.573 0.6032 0.052 Uiso 1 1 calc R
C200 C 0.7261(4) -0.1236(3) 0.7651(3) 0.0739(10) Uani 1 1 d .
H20A H 0.6395 -0.1736 0.7264 0.089 Uiso 1 1 calc R
H20B H 0.7492 -0.1873 0.7756 0.089 Uiso 1 1 calc R
N2 N 0.85737(18) -0.6119(2) 0.70352(14) 0.0377(4) Uani 1 1 d .
N1 N 0.65497(19) -0.75880(19) 0.64799(14) 0.0377(4) Uani 1 1 d .
O1 O 0.59336(14) -0.40305(16) 0.87409(10) 0.0341(3) Uani 1 1 d .
O2 O 0.42657(16) -0.63936(16) 0.75138(11) 0.0392(4) Uani 1 1 d .
Cl2 Cl 0.64997(6) -0.44695(6) 0.66583(4) 0.03779(11) Uani 1 1 d .
Cl1 Cl 0.63492(6) -0.62742(6) 0.90269(4) 0.04023(12) Uani 1 1 d .
Cl3 Cl 0.16798(7) -0.67022(10) 0.54666(8) 0.0738(3) Uani 1 1 d .
Cl4 Cl 0.34816(10) -0.39941(9) 0.67087(6) 0.0651(2) Uani 1 1 d .
Cl5 Cl 0.83357(11) -0.03270(15) 0.70627(7) 0.0903(3) Uani 1 1 d .
Cl6 Cl 0.72755(10) -0.02041(12) 0.87107(6) 0.0752(2) Uani 1 1 d .
Ru1 Ru 0.670568(14) -0.525041(16) 0.788850(10) 0.02618(5) Uani 1 1 d .
loop_
_atom_site_aniso_label
_atom_site_aniso_U_11
_atom_site_aniso_U_22
_atom_site_aniso_U_33
_atom_site_aniso_U_23
_atom_site_aniso_U_13
_atom_site_aniso_U_12
C1 0.0300(9) 0.0313(9) 0.0240(8) 0.0063(7) 0.0090(7) 0.0170(8)
C3 0.0461(14) 0.0535(15) 0.0551(16) -0.0027(12) 0.0187(12) 0.0312(13)
C2 0.0497(15) 0.0540(16) 0.0544(16) -0.0110(13) 0.0125(12) 0.0331(13)
C4 0.0269(9) 0.0341(10) 0.0316(10) 0.0012(8) 0.0070(8) 0.0153(8)
C5 0.0286(9) 0.0317(9) 0.0263(9) 0.0049(7) 0.0085(7) 0.0174(8)
C6 0.0293(9) 0.0309(9) 0.0273(9) 0.0091(7) 0.0059(7) 0.0165(8)
C7 0.0299(10) 0.0393(12) 0.0471(13) 0.0132(10) 0.0098(9) 0.0148(9)
C11 0.0281(9) 0.0393(11) 0.0344(10) 0.0090(9) 0.0127(8) 0.0196(9)
C12 0.0396(11) 0.0478(13) 0.0369(11) 0.0168(10) 0.0153(9) 0.0281(10)
C13 0.0404(12) 0.0407(12) 0.0470(13) 0.0205(10) 0.0181(10) 0.0223(10)
C14 0.0345(11) 0.0376(11) 0.0430(12) 0.0107(9) 0.0124(9) 0.0206(9)
C15 0.0363(11) 0.0456(12) 0.0365(11) 0.0145(9) 0.0109(9) 0.0242(10)
C16 0.0331(10) 0.0396(11) 0.0395(11) 0.0166(9) 0.0167(9) 0.0225(9)
C17 0.0599(18) 0.081(2) 0.0458(15) 0.0305(15) 0.0129(13) 0.0363(17)
C18 0.0426(14) 0.0435(14) 0.0610(17) 0.0097(12) 0.0061(12) 0.0148(11)
C19 0.0441(13) 0.0491(14) 0.0544(15) 0.0262(12) 0.0192(12) 0.0221(12)
C21 0.0343(10) 0.0250(9) 0.0262(9) 0.0008(7) 0.0062(7) 0.0150(8)
C22 0.0521(13) 0.0306(10) 0.0305(10) 0.0076(8) 0.0088(9) 0.0233(10)
C23 0.0544(15) 0.0284(10) 0.0447(13) 0.0104(9) 0.0209(11) 0.0139(10)
C24 0.0368(12) 0.0289(11) 0.0523(14) -0.0045(10) 0.0056(10) 0.0110(9)
C25 0.0464(13) 0.0313(10) 0.0350(11) -0.0046(9) -0.0070(9) 0.0202(10)
C26 0.0483(12) 0.0235(9) 0.0244(9) 0.0005(7) 0.0045(8) 0.0170(9)
C27 0.093(2) 0.0536(16) 0.0439(14) 0.0177(13) 0.0047(15) 0.0439(17)
C28 0.0387(15) 0.0544(19) 0.110(3) -0.0024(19) 0.0095(18) 0.0086(14)
C29 0.079(2) 0.0361(12) 0.0299(11) 0.0086(9) 0.0100(12) 0.0210(13)
C31 0.0303(9) 0.0278(9) 0.0235(8) 0.0035(7) 0.0046(7) 0.0131(8)
C32 0.0317(10) 0.0309(10) 0.0303(10) 0.0055(8) 0.0027(8) 0.0093(8)
C33 0.0442(13) 0.0318(11) 0.0289(10) -0.0018(8) 0.0003(9) 0.0087(9)
C34 0.0522(14) 0.0337(11) 0.0276(10) -0.0025(8) 0.0093(9) 0.0171(10)
C35 0.0405(11) 0.0322(10) 0.0269(9) 0.0040(8) 0.0110(8) 0.0190(9)
C36 0.0313(9) 0.0266(9) 0.0225(8) 0.0027(7) 0.0046(7) 0.0138(8)
C100 0.0363(12) 0.0485(13) 0.0413(12) 0.0149(11) 0.0109(10) 0.0189(10)
C200 0.073(2) 0.0425(16) 0.085(3) 0.0047(16) 0.0110(19) 0.0225(16)
N2 0.0320(9) 0.0405(10) 0.0366(9) 0.0005(8) 0.0111(7) 0.0217(8)
N1 0.0345(9) 0.0333(9) 0.0360(9) -0.0041(7) 0.0097(8) 0.0186(8)
O1 0.0267(7) 0.0366(8) 0.0274(7) -0.0049(6) 0.0052(5) 0.0157(6)
O2 0.0338(8) 0.0362(8) 0.0357(8) -0.0041(6) 0.0033(6) 0.0180(7)
Cl2 0.0457(3) 0.0359(3) 0.0327(2) 0.0070(2) 0.0025(2) 0.0243(2)
Cl1 0.0410(3) 0.0524(3) 0.0277(2) 0.0159(2) 0.0153(2) 0.0214(2)
Cl3 0.0379(3) 0.0726(5) 0.0959(7) 0.0382(5) -0.0029(4) 0.0121(3)
Cl4 0.0867(6) 0.0642(5) 0.0564(4) 0.0204(4) 0.0328(4) 0.0453(4)
Cl5 0.0867(7) 0.1370(10) 0.0501(5) 0.0351(6) 0.0152(4) 0.0560(7)
Cl6 0.0837(6) 0.1011(7) 0.0518(4) 0.0281(5) 0.0112(4) 0.0537(6)
Ru1 0.02395(8) 0.02806(8) 0.02176(7) 0.00075(5) 0.00551(5) 0.01359(6)
loop_
_atom_type_symbol
_atom_type_description
_atom_type_scat_dispersion_real
_atom_type_scat_dispersion_imag
_atom_type_scat_source
C C 0.0033 0.0016 'International Tables Vol C Tables 4.2.6.8 and 6.1.1.4'
H H 0 0 'International Tables Vol C Tables 4.2.6.8 and 6.1.1.4'
N N 0.0061 0.0033 'International Tables Vol C Tables 4.2.6.8 and 6.1.1.4'
O O 0.0106 0.006 'International Tables Vol C Tables 4.2.6.8 and 6.1.1.4'
Cl Cl 0.1484 0.1585 'International Tables Vol C Tables 4.2.6.8 and 6.1.1.4'
Ru Ru -1.2594 0.8363 'International Tables Vol C Tables 4.2.6.8 and 6.1.1.4'
loop_
_geom_angle_atom_site_label_1
_geom_angle_atom_site_label_2
_geom_angle_atom_site_label_3
_geom_angle
N2 C1 N1 106.44(18)
N2 C1 Ru1 132.44(16)
N1 C1 Ru1 121.05(16)
N2 C3 C2 103.3(2)
N2 C3 H3A 111.1
C2 C3 H3A 111.1
N2 C3 H3B 111.1
C2 C3 H3B 111.1
H3A C3 H3B 109.1
N1 C2 C3 102.6(2)
N1 C2 H2A 111.2
C3 C2 H2A 111.2
N1 C2 H2B 111.2
C3 C2 H2B 111.2
H2A C2 H2B 109.2
C31 C4 Ru1 116.05(16)
C31 C4 H4 122
Ru1 C4 H4 122
O1 C5 C6 109.01(16)
O1 C5 H5A 109.9
C6 C5 H5A 109.9
O1 C5 H5B 109.9
C6 C5 H5B 109.9
H5A C5 H5B 108.3
O2 C6 C7 122.9(2)
O2 C6 C5 121.90(19)
C7 C6 C5 115.20(18)
C6 C7 H7A 109.5
C6 C7 H7B 109.5
H7A C7 H7B 109.5
C6 C7 H7C 109.5
H7A C7 H7C 109.5
H7B C7 H7C 109.5
C16 C11 C12 121.8(2)
C16 C11 N2 119.2(2)
C12 C11 N2 119.0(2)
C13 C12 C11 117.8(2)
C13 C12 C17 120.9(3)
C11 C12 C17 121.3(3)
C14 C13 C12 122.2(2)
C14 C13 H13 118.9
C12 C13 H13 118.9
C13 C14 C15 118.1(2)
C13 C14 C18 121.0(2)
C15 C14 C18 120.8(2)
C16 C15 C14 121.7(2)
C16 C15 H15 119.2
C14 C15 H15 119.2
C11 C16 C15 118.3(2)
C11 C16 C19 121.2(2)
C15 C16 C19 120.5(2)
C12 C17 H17A 109.5
C12 C17 H17B 109.5
H17A C17 H17B 109.5
C12 C17 H17C 109.5
H17A C17 H17C 109.5
H17B C17 H17C 109.5
C14 C18 H18A 109.5
C14 C18 H18B 109.5
H18A C18 H18B 109.5
C14 C18 H18C 109.5
H18A C18 H18C 109.5
H18B C18 H18C 109.5
C16 C19 H19A 109.5
C16 C19 H19B 109.5
H19A C19 H19B 109.5
C16 C19 H19C 109.5
H19A C19 H19C 109.5
H19B C19 H19C 109.5
C22 C21 C26 121.0(2)
C22 C21 N1 119.7(2)
C26 C21 N1 119.1(2)
C23 C22 C21 117.8(2)
C23 C22 C27 119.7(3)
C21 C22 C27 122.5(3)
C24 C23 C22 122.3(2)
C24 C23 H23 118.9
C22 C23 H23 118.9
C25 C24 C23 118.3(2)
C25 C24 C28 120.6(3)
C23 C24 C28 121.1(3)
C24 C25 C26 122.0(2)
C24 C25 H25 119
C26 C25 H25 119
C25 C26 C21 118.3(2)
C25 C26 C29 119.8(2)
C21 C26 C29 121.8(2)
C22 C27 H27A 109.5
C22 C27 H27B 109.5
H27A C27 H27B 109.5
C22 C27 H27C 109.5
H27A C27 H27C 109.5
H27B C27 H27C 109.5
C24 C28 H28A 109.5
C24 C28 H28B 109.5
H28A C28 H28B 109.5
C24 C28 H28C 109.5
H28A C28 H28C 109.5
H28B C28 H28C 109.5
C26 C29 H29A 109.5
C26 C29 H29B 109.5
H29A C29 H29B 109.5
C26 C29 H29C 109.5
H29A C29 H29C 109.5
H29B C29 H29C 109.5
C32 C31 C36 117.49(19)
C32 C31 C4 123.3(2)
C36 C31 C4 119.15(18)
C33 C32 C31 120.5(2)
C33 C32 H32 119.7
C31 C32 H32 119.7
C34 C33 C32 120.1(2)
C34 C33 H33 119.9
C32 C33 H33 119.9
C33 C34 C35 121.2(2)
C33 C34 H34 119.4
C35 C34 H34 119.4
C36 C35 C34 117.6(2)
C36 C35 H35 121.2
C34 C35 H35 121.2
O1 C36 C35 124.4(2)
O1 C36 C31 112.52(17)
C35 C36 C31 123.0(2)
Cl3 C100 Cl4 111.49(15)
Cl3 C100 H10A 109.3
Cl4 C100 H10A 109.3
Cl3 C100 H10B 109.3
Cl4 C100 H10B 109.3
H10A C100 H10B 108
Cl6 C200 Cl5 111.8(2)
Cl6 C200 H20A 109.3
Cl5 C200 H20A 109.3
Cl6 C200 H20B 109.3
Cl5 C200 H20B 109.3
H20A C200 H20B 107.9
C1 N2 C11 128.12(18)
C1 N2 C3 113.4(2)
C11 N2 C3 118.34(19)
C1 N1 C21 126.64(17)
C1 N1 C2 114.1(2)
C21 N1 C2 119.2(2)
C36 O1 C5 119.53(16)
C36 O1 Ru1 109.38(13)
C5 O1 Ru1 124.65(13)
C4 Ru1 C1 100.32(11)
C4 Ru1 O1 80.56(10)
C1 Ru1 O1 179.06(7)
C4 Ru1 Cl1 95.15(9)
C1 Ru1 Cl1 95.51(8)
O1 Ru1 Cl1 84.71(7)
C4 Ru1 Cl2 96.61(10)
C1 Ru1 Cl2 90.21(8)
O1 Ru1 Cl2 89.37(6)
Cl1 Ru1 Cl2 165.79(3)
loop_
_geom_bond_atom_site_label_1
_geom_bond_atom_site_label_2
_geom_bond_distance
C1 N2 1.350(3)
C1 N1 1.353(3)
C1 Ru1 1.985(2)
C3 N2 1.472(3)
C3 C2 1.504(4)
C3 H3A 0.97
C3 H3B 0.97
C2 N1 1.466(3)
C2 H2A 0.97
C2 H2B 0.97
C4 C31 1.456(3)
C4 Ru1 1.834(3)
C4 H4 0.93
C5 O1 1.418(3)
C5 C6 1.510(3)
C5 H5A 0.97
C5 H5B 0.97
C6 O2 1.206(3)
C6 C7 1.492(3)
C7 H7A 0.96
C7 H7B 0.96
C7 H7C 0.96
C11 C16 1.387(3)
C11 C12 1.398(3)
C11 N2 1.430(3)
C12 C13 1.387(4)
C12 C17 1.501(4)
C13 C14 1.386(4)
C13 H13 0.93
C14 C15 1.392(3)
C14 C18 1.508(4)
C15 C16 1.390(4)
C15 H15 0.93
C16 C19 1.508(3)
C17 H17A 0.96
C17 H17B 0.96
C17 H17C 0.96
C18 H18A 0.96
C18 H18B 0.96
C18 H18C 0.96
C19 H19A 0.96
C19 H19B 0.96
C19 H19C 0.96
C21 C22 1.394(3)
C21 C26 1.398(3)
C21 N1 1.428(3)
C22 C23 1.388(4)
C22 C27 1.504(4)
C23 C24 1.380(4)
C23 H23 0.93
C24 C25 1.377(4)
C24 C28 1.506(4)
C25 C26 1.383(4)
C25 H25 0.93
C26 C29 1.504(4)
C27 H27A 0.96
C27 H27B 0.96
C27 H27C 0.96
C28 H28A 0.96
C28 H28B 0.96
C28 H28C 0.96
C29 H29A 0.96
C29 H29B 0.96
C29 H29C 0.96
C31 C32 1.397(3)
C31 C36 1.400(3)
C32 C33 1.387(3)
C32 H32 0.93
C33 C34 1.381(4)
C33 H33 0.93
C34 C35 1.391(3)
C34 H34 0.93
C35 C36 1.380(3)
C35 H35 0.93
C36 O1 1.379(3)
C100 Cl3 1.751(3)
C100 Cl4 1.759(3)
C100 H10A 0.97
C100 H10B 0.97
C200 Cl6 1.728(4)
C200 Cl5 1.744(4)
C200 H20A 0.97
C200 H20B 0.97
O1 Ru1 2.2232(18)
Cl2 Ru1 2.3734(14)
Cl1 Ru1 2.3520(15)
#------------------------------------------------------------------------------
#$Date: 2016-03-21 06:59:19 +0200 (Mon, 21 Mar 2016) $
#$Revision: 178543 $
#$URL: svn://www.crystallography.net/cod/cif/4/06/49/4064967.cif $
#------------------------------------------------------------------------------
#
# This file is available in the Crystallography Open Database (COD),
# http://www.crystallography.net/
#
# All data on this site have been placed in the public domain by the
# contributors.
#
data_4064967
loop_
_publ_author_name
'Bieniek, Micha\/l'
'Samoj\/lowicz, Cezary'
'Sashuk, Volodymyr'
'Bujok, Robert'
'\'Sled\'z, Pawe\/l'
'Lugan, No\"el'
'Lavigne, Guy'
'Arlt, Dieter'
'Grela, Karol'
_publ_section_title
;
 Rational Design and Evaluation of Upgraded Grubbs/Hoveyda Olefin
 Metathesis Catalysts: Polyfunctional Benzylidene Ethers on the Test Bench
;
_journal_issue                   15
_journal_name_full               Organometallics
_journal_page_first              4144
_journal_paper_doi               10.1021/om200463u
_journal_volume                  30
_journal_year                    2011
_chemical_compound_source        'synthesis as described'
_chemical_formula_moiety         'C31 H35 Cl2 N3 O Ru'
_chemical_formula_sum            'C31 H35 Cl2 N3 O Ru'
_chemical_formula_weight         637.59
_chemical_name_systematic
;
 ?
;
_space_group_IT_number           14
_symmetry_cell_setting           monoclinic
_symmetry_Int_Tables_number      14
_symmetry_space_group_name_Hall  '-P 2ybc'
_symmetry_space_group_name_H-M   'P 1 21/c 1'
_atom_sites_solution_hydrogens   geom
_atom_sites_solution_primary     direct
_atom_sites_solution_secondary   difmap
_audit_creation_date             2011-05-24T19:10:00-00:00
_audit_creation_method           'WinGX routine CIF_UPDATE'
_cell_angle_alpha                90
_cell_angle_beta                 102.306(2)
_cell_angle_gamma                90
_cell_formula_units_Z            4
_cell_length_a                   11.9763(4)
_cell_length_b                   16.6003(6)
_cell_length_c                   18.6197(6)
_cell_measurement_reflns_used    75949
_cell_measurement_temperature    180(2)
_cell_measurement_theta_max      33.05
_cell_measurement_theta_min      1.66
_cell_measurement_wavelength     0.71073
_cell_volume                     3616.7(2)
_computing_structure_refinement  'SHELXL-97 (Sheldrick, 1997)'
_diffrn_ambient_temperature      180(2)
_diffrn_measured_fraction_theta_full 0.994
_diffrn_measured_fraction_theta_max 0.994
_diffrn_measurement_device_type  'Bruker APEX II'
_diffrn_measurement_method       'phi and omega scans'
_diffrn_radiation_monochromator  graphite
_diffrn_radiation_probe          x-ray
_diffrn_radiation_type           MoK\a
_diffrn_radiation_wavelength     0.71073
_diffrn_reflns_av_R_equivalents  0.0398
_diffrn_reflns_av_unetI/netI     0.0398
_diffrn_reflns_limit_h_max       18
_diffrn_reflns_limit_h_min       -15
_diffrn_reflns_limit_k_max       25
_diffrn_reflns_limit_k_min       -25
_diffrn_reflns_limit_l_max       25
_diffrn_reflns_limit_l_min       -28
_diffrn_reflns_number            75885
_diffrn_reflns_theta_full        33.05
_diffrn_reflns_theta_max         33.05
_diffrn_reflns_theta_min         2.53
_diffrn_standards_decay_%        0
_diffrn_standards_interval_count 0
_diffrn_standards_number         0
_exptl_absorpt_coefficient_mu    0.604
_exptl_absorpt_correction_T_max  0.916
_exptl_absorpt_correction_T_min  0.795
_exptl_absorpt_correction_type   multi-scan
_exptl_absorpt_process_details
;
'SADABS, Sheldrick, Bruker, 2000'
;
_exptl_crystal_colour            green
_exptl_crystal_density_diffrn    1.171
_exptl_crystal_density_method    'not measured'
_exptl_crystal_description       platelated
_exptl_crystal_F_000             1312.0
_exptl_crystal_size_max          0.32
_exptl_crystal_size_mid          0.20
_exptl_crystal_size_min          0.10
_refine_diff_density_max         0.756
_refine_diff_density_min         -0.411
_refine_diff_density_rms         0.08
_refine_ls_extinction_method     none
_refine_ls_goodness_of_fit_ref   1.027
_refine_ls_hydrogen_treatment    riding
_refine_ls_matrix_type           full
_refine_ls_number_parameters     351
_refine_ls_number_reflns         13617
_refine_ls_number_restraints     0
_refine_ls_restrained_S_all      1.027
_refine_ls_R_factor_all          0.0559
_refine_ls_R_factor_gt           0.0359
_refine_ls_shift/su_max          0.002
_refine_ls_shift/su_mean         0
_refine_ls_structure_factor_coef Fsqd
_refine_ls_weighting_details
'calc w=1/[\s^2^(Fo^2^)+(0.0532P)^2^+0.0000P] where P=(Fo^2^+2Fc^2^)/3'
_refine_ls_weighting_scheme      calc
_refine_ls_wR_factor_gt          0.0893
_refine_ls_wR_factor_ref         0.0952
_reflns_number_gt                9924
_reflns_number_total             13617
_reflns_threshold_expression     >2sigma(I)
_cod_data_source_file            om200463u_si_004.cif
_cod_data_source_block           C2
_cod_original_sg_symbol_H-M      'P 21/c'
_cod_database_code               4064967
loop_
_symmetry_equiv_pos_as_xyz
'x, y, z'
'-x, y+1/2, -z+1/2'
'-x, -y, -z'
'x, -y-1/2, z-1/2'
loop_
_atom_site_label
_atom_site_type_symbol
_atom_site_fract_x
_atom_site_fract_y
_atom_site_fract_z
_atom_site_U_iso_or_equiv
_atom_site_adp_type
_atom_site_occupancy
_atom_site_symmetry_multiplicity
_atom_site_calc_flag
_atom_site_refinement_flags
C1 C 0.13072(14) 0.18950(9) 0.42692(7) 0.0225(3) Uani 1 1 d .
C2 C 0.21652(18) 0.06515(11) 0.41160(11) 0.0379(4) Uani 1 1 d .
H2A H 0.287 0.0479 0.444 0.045 Uiso 1 1 calc R
H2B H 0.2083 0.0374 0.3649 0.045 Uiso 1 1 calc R
C3 C 0.1147(2) 0.04964(11) 0.44584(14) 0.0538(6) Uani 1 1 d .
H3A H 0.0572 0.0175 0.4137 0.065 Uiso 1 1 calc R
H3B H 0.1374 0.0226 0.4929 0.065 Uiso 1 1 calc R
C4 C 0.17991(15) 0.35319(10) 0.38002(9) 0.0297(3) Uani 1 1 d .
H4 H 0.2441 0.3263 0.3719 0.036 Uiso 1 1 calc R
C5 C -0.11578(15) 0.45080(11) 0.41148(10) 0.0320(4) Uani 1 1 d .
H5 H -0.1145 0.5028 0.4365 0.038 Uiso 1 1 calc R
C6 C -0.18368(17) 0.45888(12) 0.33588(12) 0.0421(4) Uani 1 1 d .
C11 C 0.30370(15) 0.18985(10) 0.37319(9) 0.0279(3) Uani 1 1 d .
C12 C 0.40303(18) 0.21531(12) 0.42213(11) 0.0398(4) Uani 1 1 d .
C13 C 0.49052(18) 0.24779(15) 0.39254(15) 0.0547(6) Uani 1 1 d .
H13 H 0.5571 0.2649 0.4243 0.066 Uiso 1 1 calc R
C14 C 0.48190(19) 0.25552(15) 0.31763(16) 0.0559(6) Uani 1 1 d .
C15 C 0.38189(18) 0.23067(13) 0.27088(12) 0.0437(5) Uani 1 1 d .
H15 H 0.3747 0.2364 0.2204 0.052 Uiso 1 1 calc R
C16 C 0.29141(15) 0.19728(10) 0.29739(9) 0.0298(3) Uani 1 1 d .
C17 C 0.4132(2) 0.20958(16) 0.50400(13) 0.0597(7) Uani 1 1 d .
H17A H 0.3536 0.2407 0.5178 0.089 Uiso 1 1 calc R
H17B H 0.4862 0.2301 0.5288 0.089 Uiso 1 1 calc R
H17C H 0.4062 0.1543 0.5175 0.089 Uiso 1 1 calc R
C18 C 0.5805(3) 0.2891(2) 0.2871(2) 0.0960(12) Uani 1 1 d .
H18A H 0.5681 0.2774 0.2355 0.144 Uiso 1 1 calc R
H18B H 0.6507 0.2648 0.3122 0.144 Uiso 1 1 calc R
H18C H 0.5848 0.3464 0.2944 0.144 Uiso 1 1 calc R
C19 C 0.18225(18) 0.17271(13) 0.24632(10) 0.0390(4) Uani 1 1 d .
H19A H 0.165 0.1178 0.2559 0.059 Uiso 1 1 calc R
H19B H 0.1907 0.1776 0.1964 0.059 Uiso 1 1 calc R
H19C H 0.1212 0.207 0.2539 0.059 Uiso 1 1 calc R
C21 C -0.01299(15) 0.14407(9) 0.49694(9) 0.0272(3) Uani 1 1 d .
C22 C -0.12872(16) 0.13944(10) 0.46334(9) 0.0320(4) Uani 1 1 d .
C23 C -0.20856(16) 0.15265(12) 0.50660(10) 0.0357(4) Uani 1 1 d .
H23 H -0.2859 0.1517 0.4846 0.043 Uiso 1 1 calc R
C24 C -0.17617(16) 0.16714(12) 0.58155(10) 0.0363(4) Uani 1 1 d .
C25 C -0.06098(16) 0.16575(11) 0.61393(9) 0.0334(4) Uani 1 1 d .
H25 H -0.0386 0.1733 0.6644 0.04 Uiso 1 1 calc R
C26 C 0.02215(15) 0.15341(10) 0.57340(9) 0.0280(3) Uani 1 1 d .
C27 C -0.1700(2) 0.11400(13) 0.38440(10) 0.0466(5) Uani 1 1 d .
H27A H -0.2002 0.0603 0.3828 0.07 Uiso 1 1 calc R
H27B H -0.1074 0.1153 0.3597 0.07 Uiso 1 1 calc R
H27C H -0.2288 0.1502 0.3604 0.07 Uiso 1 1 calc R
C28 C -0.2650(2) 0.18232(17) 0.62682(13) 0.0550(6) Uani 1 1 d .
H28A H -0.2886 0.2377 0.6218 0.083 Uiso 1 1 calc R
H28B H -0.2329 0.1708 0.6775 0.083 Uiso 1 1 calc R
H28C H -0.3299 0.1481 0.6098 0.083 Uiso 1 1 calc R
C29 C 0.14568(16) 0.14598(12) 0.61238(10) 0.0376(4) Uani 1 1 d .
H29A H 0.1664 0.0901 0.6175 0.056 Uiso 1 1 calc R
H29B H 0.1562 0.1703 0.6601 0.056 Uiso 1 1 calc R
H29C H 0.1931 0.1729 0.5843 0.056 Uiso 1 1 calc R
C31 C 0.16109(15) 0.43768(10) 0.36035(9) 0.0297(3) Uani 1 1 d .
C32 C 0.23423(18) 0.48130(12) 0.32640(11) 0.0422(4) Uani 1 1 d .
H32 H 0.2992 0.4569 0.3165 0.051 Uiso 1 1 calc R
C33 C 0.2104(2) 0.56182(13) 0.30698(12) 0.0495(5) Uani 1 1 d .
H33 H 0.2593 0.5908 0.2839 0.059 Uiso 1 1 calc R
C34 C 0.11479(19) 0.59823(12) 0.32203(11) 0.0431(5) Uani 1 1 d .
H34 H 0.0998 0.6519 0.3091 0.052 Uiso 1 1 calc R
C35 C 0.03999(17) 0.55612(10) 0.35622(10) 0.0334(4) Uani 1 1 d .
H35 H -0.0246 0.5809 0.3663 0.04 Uiso 1 1 calc R
C36 C 0.06461(14) 0.47631(9) 0.37478(8) 0.0260(3) Uani 1 1 d .
N1 N 0.21473(13) 0.15266(8) 0.40153(7) 0.0288(3) Uani 1 1 d .
N3 N -0.23843(19) 0.46701(13) 0.27808(12) 0.0650(6) Uani 1 1 d .
N2 N 0.07273(13) 0.13106(8) 0.45471(8) 0.0308(3) Uani 1 1 d .
O1 O -0.00028(10) 0.42772(7) 0.41034(6) 0.0256(2) Uani 1 1 d .
C7 C -0.16496(17) 0.38790(13) 0.45479(11) 0.0404(4) Uani 1 1 d .
H7A H -0.2385 0.4053 0.4615 0.061 Uiso 1 1 calc R
H7B H -0.1146 0.3807 0.5019 0.061 Uiso 1 1 calc R
H7C H -0.173 0.3378 0.4284 0.061 Uiso 1 1 calc R
Cl1 Cl 0.14816(4) 0.33403(3) 0.54376(2) 0.03543(10) Uani 1 1 d .
Cl2 Cl -0.06186(4) 0.27372(3) 0.31483(2) 0.03279(9) Uani 1 1 d .
Ru1 Ru 0.074333(11) 0.301149(7) 0.421182(6) 0.02093(4) Uani 1 1 d .
loop_
_atom_site_aniso_label
_atom_site_aniso_U_11
_atom_site_aniso_U_22
_atom_site_aniso_U_33
_atom_site_aniso_U_23
_atom_site_aniso_U_13
_atom_site_aniso_U_12
C1 0.0297(8) 0.0186(7) 0.0186(6) 0.0001(5) 0.0037(5) -0.0001(6)
C2 0.0500(11) 0.0206(8) 0.0480(10) 0.0047(7) 0.0217(9) 0.0082(8)
C3 0.0814(17) 0.0177(9) 0.0783(15) 0.0047(9) 0.0530(13) 0.0065(10)
C4 0.0348(9) 0.0226(8) 0.0342(8) 0.0028(6) 0.0131(7) 0.0028(7)
C5 0.0317(9) 0.0236(8) 0.0418(9) -0.0046(7) 0.0104(7) 0.0029(7)
C6 0.0352(10) 0.0300(10) 0.0567(12) 0.0068(8) 0.0000(9) -0.0001(8)
C11 0.0275(8) 0.0228(8) 0.0347(8) 0.0003(6) 0.0094(6) 0.0049(6)
C12 0.0344(10) 0.0329(10) 0.0476(10) -0.0007(8) -0.0010(8) 0.0080(8)
C13 0.0264(10) 0.0471(13) 0.0842(17) 0.0005(12) -0.0025(10) -0.0010(9)
C14 0.0339(12) 0.0485(14) 0.0903(18) 0.0105(12) 0.0246(11) -0.0026(10)
C15 0.0459(12) 0.0385(11) 0.0537(11) 0.0088(9) 0.0263(10) 0.0042(9)
C16 0.0331(9) 0.0238(8) 0.0352(8) 0.0015(6) 0.0135(7) 0.0031(7)
C17 0.0608(16) 0.0638(16) 0.0446(11) -0.0042(10) -0.0108(11) 0.0106(12)
C18 0.0551(19) 0.097(3) 0.148(3) 0.024(2) 0.048(2) -0.0174(16)
C19 0.0473(12) 0.0389(10) 0.0305(8) -0.0040(7) 0.0073(8) -0.0021(9)
C21 0.0370(9) 0.0175(7) 0.0300(7) 0.0026(6) 0.0133(6) 0.0002(6)
C22 0.0446(10) 0.0217(8) 0.0293(7) 0.0034(6) 0.0069(7) -0.0047(7)
C23 0.0302(9) 0.0343(10) 0.0412(9) 0.0043(7) 0.0042(7) -0.0002(7)
C24 0.0361(10) 0.0353(10) 0.0404(9) 0.0015(8) 0.0149(8) 0.0024(8)
C25 0.0397(10) 0.0333(9) 0.0284(7) -0.0022(7) 0.0100(7) -0.0001(8)
C26 0.0310(9) 0.0223(8) 0.0309(7) 0.0015(6) 0.0071(6) 0.0005(6)
C27 0.0627(14) 0.0422(12) 0.0324(9) 0.0007(8) 0.0041(9) -0.0134(10)
C28 0.0433(13) 0.0723(17) 0.0556(13) -0.0048(11) 0.0241(10) 0.0027(11)
C29 0.0344(10) 0.0344(10) 0.0422(9) 0.0051(7) 0.0047(7) 0.0029(8)
C31 0.0348(9) 0.0219(8) 0.0336(8) 0.0035(6) 0.0098(7) 0.0004(7)
C32 0.0461(12) 0.0329(10) 0.0530(11) 0.0128(8) 0.0224(9) 0.0020(8)
C33 0.0584(14) 0.0343(11) 0.0606(13) 0.0179(9) 0.0237(11) -0.0058(10)
C34 0.0513(12) 0.0227(9) 0.0524(11) 0.0145(8) 0.0045(9) 0.0001(8)
C35 0.0389(10) 0.0213(8) 0.0378(8) 0.0054(7) 0.0036(7) 0.0045(7)
C36 0.0310(8) 0.0198(7) 0.0264(7) 0.0017(5) 0.0045(6) -0.0019(6)
N1 0.0373(8) 0.0192(6) 0.0328(7) 0.0030(5) 0.0142(6) 0.0046(6)
N3 0.0552(13) 0.0506(12) 0.0756(14) 0.0205(10) -0.0163(11) -0.0038(10)
N2 0.0445(9) 0.0160(6) 0.0375(7) 0.0021(5) 0.0211(6) 0.0023(6)
O1 0.0294(6) 0.0189(5) 0.0289(5) 0.0023(4) 0.0070(4) 0.0019(4)
C7 0.0388(10) 0.0433(11) 0.0433(9) -0.0001(8) 0.0179(8) -0.0014(8)
Cl1 0.0519(3) 0.0271(2) 0.02462(16) -0.00342(14) 0.00224(16) 0.00502(18)
Cl2 0.0413(2) 0.0274(2) 0.02584(16) -0.00171(15) -0.00129(15) 0.00282(17)
Ru1 0.02721(7) 0.01562(6) 0.02038(6) 0.00080(4) 0.00599(4) 0.00132(5)
loop_
_atom_type_symbol
_atom_type_description
_atom_type_scat_dispersion_real
_atom_type_scat_dispersion_imag
_atom_type_scat_source
C C 0.0033 0.0016 'International Tables Vol C Tables 4.2.6.8 and 6.1.1.4'
H H 0 0 'International Tables Vol C Tables 4.2.6.8 and 6.1.1.4'
N N 0.0061 0.0033 'International Tables Vol C Tables 4.2.6.8 and 6.1.1.4'
O O 0.0106 0.006 'International Tables Vol C Tables 4.2.6.8 and 6.1.1.4'
Cl Cl 0.1484 0.1585 'International Tables Vol C Tables 4.2.6.8 and 6.1.1.4'
Ru Ru -1.2594 0.8363 'International Tables Vol C Tables 4.2.6.8 and 6.1.1.4'
loop_
_geom_angle_atom_site_label_1
_geom_angle_atom_site_label_2
_geom_angle_atom_site_label_3
_geom_angle
N1 C1 N2 106.89(13)
N1 C1 Ru1 133.02(11)
N2 C1 Ru1 119.74(11)
N1 C2 C3 103.39(14)
N1 C2 H2A 111.1
C3 C2 H2A 111.1
N1 C2 H2B 111.1
C3 C2 H2B 111.1
H2A C2 H2B 109
N2 C3 C2 102.54(15)
N2 C3 H3A 111.3
C2 C3 H3A 111.3
N2 C3 H3B 111.3
C2 C3 H3B 111.3
H3A C3 H3B 109.2
C31 C4 Ru1 118.49(12)
C31 C4 H4 120.8
Ru1 C4 H4 120.8
O1 C5 C6 110.25(14)
O1 C5 C7 107.97(14)
C6 C5 C7 111.94(16)
O1 C5 H5 108.9
C6 C5 H5 108.9
C7 C5 H5 108.9
N3 C6 C5 177.8(3)
C16 C11 C12 121.61(17)
C16 C11 N1 119.16(16)
C12 C11 N1 119.19(16)
C13 C12 C11 117.77(19)
C13 C12 C17 121.3(2)
C11 C12 C17 120.9(2)
C14 C13 C12 122.3(2)
C14 C13 H13 118.8
C12 C13 H13 118.8
C13 C14 C15 118.36(19)
C13 C14 C18 120.9(3)
C15 C14 C18 120.7(3)
C14 C15 C16 121.9(2)
C14 C15 H15 119.1
C16 C15 H15 119.1
C11 C16 C15 118.07(18)
C11 C16 C19 120.52(15)
C15 C16 C19 121.37(17)
C12 C17 H17A 109.5
C12 C17 H17B 109.5
H17A C17 H17B 109.5
C12 C17 H17C 109.5
H17A C17 H17C 109.5
H17B C17 H17C 109.5
C14 C18 H18A 109.5
C14 C18 H18B 109.5
H18A C18 H18B 109.5
C14 C18 H18C 109.5
H18A C18 H18C 109.5
H18B C18 H18C 109.5
C16 C19 H19A 109.5
C16 C19 H19B 109.5
H19A C19 H19B 109.5
C16 C19 H19C 109.5
H19A C19 H19C 109.5
H19B C19 H19C 109.5
C22 C21 C26 120.99(15)
C22 C21 N2 120.23(14)
C26 C21 N2 118.48(15)
C23 C22 C21 118.07(15)
C23 C22 C27 119.00(18)
C21 C22 C27 122.73(17)
C24 C23 C22 122.00(17)
C24 C23 H23 119
C22 C23 H23 119
C25 C24 C23 118.33(16)
C25 C24 C28 120.97(17)
C23 C24 C28 120.69(18)
C24 C25 C26 122.03(16)
C24 C25 H25 119
C26 C25 H25 119
C25 C26 C21 118.24(16)
C25 C26 C29 119.65(15)
C21 C26 C29 122.03(15)
C22 C27 H27A 109.5
C22 C27 H27B 109.5
H27A C27 H27B 109.5
C22 C27 H27C 109.5
H27A C27 H27C 109.5
H27B C27 H27C 109.5
C24 C28 H28A 109.5
C24 C28 H28B 109.5
H28A C28 H28B 109.5
C24 C28 H28C 109.5
H28A C28 H28C 109.5
H28B C28 H28C 109.5
C26 C29 H29A 109.5
C26 C29 H29B 109.5
H29A C29 H29B 109.5
C26 C29 H29C 109.5
H29A C29 H29C 109.5
H29B C29 H29C 109.5
C32 C31 C36 118.44(16)
C32 C31 C4 122.58(16)
C36 C31 C4 118.96(15)
C31 C32 C33 120.18(19)
C31 C32 H32 119.9
C33 C32 H32 119.9
C34 C33 C32 120.01(18)
C34 C33 H33 120
C32 C33 H33 120
C33 C34 C35 121.14(18)
C33 C34 H34 119.4
C35 C34 H34 119.4
C36 C35 C34 118.08(17)
C36 C35 H35 121
C34 C35 H35 121
O1 C36 C35 124.47(15)
O1 C36 C31 113.37(14)
C35 C36 C31 122.14(16)
C1 N1 C11 127.33(14)
C1 N1 C2 113.41(13)
C11 N1 C2 119.02(13)
C1 N2 C21 125.76(13)
C1 N2 C3 113.65(14)
C21 N2 C3 120.21(13)
C36 O1 C5 119.45(12)
C36 O1 Ru1 109.33(9)
C5 O1 Ru1 127.21(10)
C5 C7 H7A 109.5
C5 C7 H7B 109.5
H7A C7 H7B 109.5
C5 C7 H7C 109.5
H7A C7 H7C 109.5
H7B C7 H7C 109.5
C4 Ru1 C1 101.99(7)
C4 Ru1 O1 79.64(6)
C1 Ru1 O1 176.73(5)
C4 Ru1 Cl2 99.07(6)
C1 Ru1 Cl2 91.84(4)
O1 Ru1 Cl2 85.09(3)
C4 Ru1 Cl1 98.51(6)
C1 Ru1 Cl1 96.50(4)
O1 Ru1 Cl1 86.01(3)
Cl2 Ru1 Cl1 158.509(18)
loop_
_geom_bond_atom_site_label_1
_geom_bond_atom_site_label_2
_geom_bond_distance
C1 N1 1.346(2)
C1 N2 1.358(2)
C1 Ru1 1.9677(15)
C2 N1 1.464(2)
C2 C3 1.514(3)
C2 H2A 0.97
C2 H2B 0.97
C3 N2 1.464(2)
C3 H3A 0.97
C3 H3B 0.97
C4 C31 1.455(2)
C4 Ru1 1.8290(16)
C4 H4 0.93
C5 O1 1.440(2)
C5 C6 1.474(3)
C5 C7 1.513(3)
C5 H5 0.98
C6 N3 1.143(3)
C11 C16 1.393(2)
C11 C12 1.401(3)
C11 N1 1.426(2)
C12 C13 1.392(3)
C12 C17 1.506(3)
C13 C14 1.383(4)
C13 H13 0.93
C14 C15 1.385(3)
C14 C18 1.521(3)
C15 C16 1.397(3)
C15 H15 0.93
C16 C19 1.500(3)
C17 H17A 0.96
C17 H17B 0.96
C17 H17C 0.96
C18 H18A 0.96
C18 H18B 0.96
C18 H18C 0.96
C19 H19A 0.96
C19 H19B 0.96
C19 H19C 0.96
C21 C22 1.396(3)
C21 C26 1.404(2)
C21 N2 1.436(2)
C22 C23 1.393(3)
C22 C27 1.508(2)
C23 C24 1.388(3)
C23 H23 0.93
C24 C25 1.383(3)
C24 C28 1.512(3)
C25 C26 1.387(2)
C25 H25 0.93
C26 C29 1.508(2)
C27 H27A 0.96
C27 H27B 0.96
C27 H27C 0.96
C28 H28A 0.96
C28 H28B 0.96
C28 H28C 0.96
C29 H29A 0.96
C29 H29B 0.96
C29 H29C 0.96
C31 C32 1.388(2)
C31 C36 1.397(2)
C32 C33 1.398(3)
C32 H32 0.93
C33 C34 1.376(3)
C33 H33 0.93
C34 C35 1.393(3)
C34 H34 0.93
C35 C36 1.385(2)
C35 H35 0.93
C36 O1 1.3828(19)
O1 Ru1 2.2753(11)
C7 H7A 0.96
C7 H7B 0.96
C7 H7C 0.96
Cl1 Ru1 2.3300(4)
Cl2 Ru1 2.3264(4)
#------------------------------------------------------------------------------
#$Date: 2016-03-21 07:34:13 +0200 (Mon, 21 Mar 2016) $
#$Revision: 178571 $
#$URL: svn://www.crystallography.net/cod/cif/4/06/81/4068123.cif $
#------------------------------------------------------------------------------
#
# This file is available in the Crystallography Open Database (COD),
# http://www.crystallography.net/
#
# All data on this site have been placed in the public domain by the
# contributors.
#
data_4068123
loop_
_publ_author_name
'\.Zukowska, Karolina'
'Szadkowska, Anna'
'Pazio, Aleksandra E.'
'Wo\'zniak, Krzysztof'
'Grela, Karol'
_publ_section_title
;
 Thermal Switchability of N-Chelating Hoveyda-type Catalyst Containing a
 Secondary Amine Ligand
;
_journal_issue                   1
_journal_name_full               Organometallics
_journal_page_first              462
_journal_paper_doi               10.1021/om2011062
_journal_volume                  31
_journal_year                    2012
_chemical_formula_moiety         'C35 H39 Cl2 N3 Ru'
_chemical_formula_sum            'C35 H39 Cl2 N3 Ru'
_chemical_formula_weight         673.66
_chemical_name_systematic
; 
 ? 
;
_space_group_IT_number           14
_symmetry_cell_setting           monoclinic
_symmetry_space_group_name_Hall  '-P 2yn'
_symmetry_space_group_name_H-M   'P 1 21/n 1'
_atom_sites_solution_hydrogens   geom
_atom_sites_solution_primary     direct
_atom_sites_solution_secondary   difmap
_audit_creation_method           SHELXL-97
_cell_angle_alpha                90.00
_cell_angle_beta                 100.305(5)
_cell_angle_gamma                90.00
_cell_formula_units_Z            4
_cell_length_a                   14.6121(9)
_cell_length_b                   10.5242(6)
_cell_length_c                   20.7757(12)
_cell_measurement_reflns_used    354
_cell_measurement_temperature    100(2)
_cell_measurement_theta_max      25.35
_cell_measurement_theta_min      1.58
_cell_volume                     3143.4(3)
_computing_cell_refinement       'Bruker SMART'
_computing_data_collection       'Bruker SMART'
_computing_data_reduction        'Bruker SAINT'
_computing_molecular_graphics
'Ortep-3 for Windows: L. J. Farrugia, J. Appl. Cryst (1997), 30, 565.'
_computing_structure_refinement  'SHELXL-97 (Sheldrick, 1997)'
_computing_structure_solution    'Bruker SHELXTL'
_diffrn_ambient_temperature      100(2)
_diffrn_measured_fraction_theta_full 0.998
_diffrn_measured_fraction_theta_max 0.998
_diffrn_measurement_device_type  'CCD area detector'
_diffrn_measurement_method       'omega scans'
_diffrn_radiation_monochromator  'multi-layer optics'
_diffrn_radiation_source         'TXS rotating anode'
_diffrn_radiation_type           MoK\a
_diffrn_radiation_wavelength     0.71073
_diffrn_reflns_av_R_equivalents  0.1100
_diffrn_reflns_av_sigmaI/netI    0.1351
_diffrn_reflns_limit_h_max       16
_diffrn_reflns_limit_h_min       -17
_diffrn_reflns_limit_k_max       11
_diffrn_reflns_limit_k_min       -12
_diffrn_reflns_limit_l_max       23
_diffrn_reflns_limit_l_min       -25
_diffrn_reflns_number            21888
_diffrn_reflns_theta_full        25.35
_diffrn_reflns_theta_max         25.35
_diffrn_reflns_theta_min         1.58
_exptl_absorpt_coefficient_mu    0.698
_exptl_absorpt_correction_T_max  0.7453
_exptl_absorpt_correction_T_min  0.6508
_exptl_absorpt_correction_type   numerical
_exptl_absorpt_process_details
'Sheldrick, G. M. (1996). SADABS. University of G&#x00F6;ttingen, Germany.'
_exptl_crystal_colour            green
_exptl_crystal_density_diffrn    1.423
_exptl_crystal_density_method    'not measured'
_exptl_crystal_description       plate
_exptl_crystal_F_000             1392
_exptl_crystal_size_max          0.145
_exptl_crystal_size_mid          0.092
_exptl_crystal_size_min          0.034
_refine_diff_density_max         0.521
_refine_diff_density_min         -0.492
_refine_diff_density_rms         0.118
_refine_ls_extinction_method     none
_refine_ls_goodness_of_fit_ref   0.977
_refine_ls_hydrogen_treatment    mixed
_refine_ls_matrix_type           full
_refine_ls_number_parameters     379
_refine_ls_number_reflns         5748
_refine_ls_number_restraints     0
_refine_ls_restrained_S_all      0.977
_refine_ls_R_factor_all          0.1211
_refine_ls_R_factor_gt           0.0487
_refine_ls_shift/su_max          0.001
_refine_ls_shift/su_mean         0.000
_refine_ls_structure_factor_coef Fsqd
_refine_ls_weighting_details
'calc w=1/[\s^2^(Fo^2^)+(0.0292P)^2^+0.0000P] where P=(Fo^2^+2Fc^2^)/3'
_refine_ls_weighting_scheme      calc
_refine_ls_wR_factor_gt          0.0744
_refine_ls_wR_factor_ref         0.0914
_reflns_number_gt                3375
_reflns_number_total             5748
_reflns_threshold_expression     >2sigma(I)
_cod_data_source_file            om2011062_si_007.cif
_cod_data_source_block           shelxl
_cod_original_sg_symbol_H-M      P2(1)/n
_cod_database_code               4068123
loop_
_symmetry_equiv_pos_as_xyz
'x, y, z'
'-x+1/2, y+1/2, -z+1/2'
'-x, -y, -z'
'x-1/2, -y-1/2, z-1/2'
loop_
_atom_site_label
_atom_site_type_symbol
_atom_site_fract_x
_atom_site_fract_y
_atom_site_fract_z
_atom_site_U_iso_or_equiv
_atom_site_adp_type
_atom_site_occupancy
_atom_site_symmetry_multiplicity
_atom_site_calc_flag
_atom_site_refinement_flags
Ru1 Ru 0.62011(3) 0.02684(4) 0.880230(19) 0.01562(12) Uani 1 1 d .
Cl1 Cl 0.75163(8) -0.07676(12) 0.85625(6) 0.0240(3) Uani 1 1 d .
Cl2 Cl 0.53340(9) 0.14797(11) 0.94159(6) 0.0231(3) Uani 1 1 d .
N1 N 0.5569(3) 0.2256(3) 0.77380(17) 0.0134(9) Uani 1 1 d .
N2 N 0.6858(3) 0.2744(4) 0.83744(18) 0.0155(9) Uani 1 1 d .
N3 N 0.6055(3) -0.1274(4) 0.94979(19) 0.0189(11) Uani 1 1 d .
C1 C 0.6231(3) 0.1815(4) 0.8233(2) 0.0163(12) Uani 1 1 d .
C2 C 0.5773(3) 0.3532(4) 0.7505(2) 0.0179(12) Uani 1 1 d .
H2A H 0.5249 0.4123 0.7516 0.021 Uiso 1 1 calc R
H2B H 0.5905 0.3497 0.7054 0.021 Uiso 1 1 calc R
C3 C 0.6627(3) 0.3923(5) 0.7990(2) 0.0218(13) Uani 1 1 d .
H3A H 0.7141 0.4178 0.7765 0.026 Uiso 1 1 calc R
H3B H 0.6487 0.4630 0.8271 0.026 Uiso 1 1 calc R
C4 C 0.4879(3) 0.1507(4) 0.7334(2) 0.0170(12) Uani 1 1 d .
C5 C 0.3963(3) 0.1544(4) 0.7427(2) 0.0177(12) Uani 1 1 d .
C6 C 0.3320(3) 0.0771(5) 0.7036(2) 0.0207(12) Uani 1 1 d .
H6 H 0.2691 0.0782 0.7098 0.025 Uiso 1 1 calc R
C7 C 0.3565(3) -0.0015(4) 0.6559(2) 0.0200(12) Uani 1 1 d .
C8 C 0.4484(3) 0.0017(4) 0.6467(2) 0.0166(12) Uani 1 1 d .
H8 H 0.4658 -0.0488 0.6129 0.020 Uiso 1 1 calc R
C9 C 0.5154(3) 0.0756(4) 0.6848(2) 0.0147(11) Uani 1 1 d .
C10 C 0.3654(3) 0.2393(4) 0.7924(2) 0.0231(13) Uani 1 1 d .
H10A H 0.4127 0.2399 0.8323 0.035 Uiso 1 1 calc R
H10B H 0.3065 0.2078 0.8026 0.035 Uiso 1 1 calc R
H10C H 0.3566 0.3257 0.7749 0.035 Uiso 1 1 calc R
C11 C 0.2876(3) -0.0871(5) 0.6151(2) 0.0268(13) Uani 1 1 d .
H11A H 0.3026 -0.1758 0.6270 0.040 Uiso 1 1 calc R
H11B H 0.2902 -0.0742 0.5687 0.040 Uiso 1 1 calc R
H11C H 0.2249 -0.0674 0.6228 0.040 Uiso 1 1 calc R
C12 C 0.6154(3) 0.0683(4) 0.6768(2) 0.0227(13) Uani 1 1 d .
H12A H 0.6531 0.0343 0.7169 0.034 Uiso 1 1 calc R
H12B H 0.6377 0.1535 0.6683 0.034 Uiso 1 1 calc R
H12C H 0.6208 0.0124 0.6399 0.034 Uiso 1 1 calc R
C13 C 0.7721(3) 0.2715(4) 0.8838(2) 0.0161(12) Uani 1 1 d .
C14 C 0.8519(3) 0.2290(4) 0.8628(2) 0.0174(12) Uani 1 1 d .
C15 C 0.9360(3) 0.2365(4) 0.9058(2) 0.0209(12) Uani 1 1 d .
H15 H 0.9903 0.2036 0.8926 0.025 Uiso 1 1 calc R
C16 C 0.9435(4) 0.2910(5) 0.9678(3) 0.0237(13) Uani 1 1 d .
C17 C 0.8623(4) 0.3361(4) 0.9856(2) 0.0228(13) Uani 1 1 d .
H17 H 0.8658 0.3746 1.0274 0.027 Uiso 1 1 calc R
C18 C 0.7762(3) 0.3272(4) 0.9450(2) 0.0196(12) Uani 1 1 d .
C19 C 0.8496(3) 0.1818(5) 0.7942(2) 0.0238(13) Uani 1 1 d .
H19A H 0.8368 0.2530 0.7635 0.036 Uiso 1 1 calc R
H19B H 0.8007 0.1176 0.7835 0.036 Uiso 1 1 calc R
H19C H 0.9099 0.1440 0.7909 0.036 Uiso 1 1 calc R
C20 C 1.0353(3) 0.3062(5) 1.0118(2) 0.0315(14) Uani 1 1 d .
H20A H 1.0430 0.3946 1.0266 0.047 Uiso 1 1 calc R
H20B H 1.0852 0.2838 0.9879 0.047 Uiso 1 1 calc R
H20C H 1.0382 0.2501 1.0498 0.047 Uiso 1 1 calc R
C21 C 0.6927(3) 0.3846(5) 0.9670(2) 0.0278(14) Uani 1 1 d .
H21A H 0.6989 0.4774 0.9684 0.042 Uiso 1 1 calc R
H21B H 0.6885 0.3529 1.0107 0.042 Uiso 1 1 calc R
H21C H 0.6363 0.3611 0.9363 0.042 Uiso 1 1 calc R
C22 C 0.5342(3) -0.0700(4) 0.8282(2) 0.0210(12) Uani 1 1 d .
H22 H 0.5044 -0.0388 0.7869 0.025 Uiso 1 1 calc R
C23 C 0.5110(3) -0.1949(5) 0.8498(2) 0.0190(12) Uani 1 1 d .
C24 C 0.4551(3) -0.2816(5) 0.8102(2) 0.0200(12) Uani 1 1 d .
H24 H 0.4263 -0.2584 0.7671 0.024 Uiso 1 1 calc R
C25 C 0.4416(3) -0.4011(5) 0.8337(2) 0.0220(12) Uani 1 1 d .
H25 H 0.4044 -0.4612 0.8066 0.026 Uiso 1 1 calc R
C26 C 0.4823(3) -0.4334(5) 0.8966(3) 0.0270(14) Uani 1 1 d .
H26 H 0.4728 -0.5161 0.9124 0.032 Uiso 1 1 calc R
C27 C 0.5367(3) -0.3478(5) 0.9372(2) 0.0221(12) Uani 1 1 d .
H27 H 0.5635 -0.3707 0.9808 0.027 Uiso 1 1 calc R
C28 C 0.5512(3) -0.2290(5) 0.9135(2) 0.0193(12) Uani 1 1 d .
C29 C 0.6873(3) -0.1735(5) 0.9974(2) 0.0272(13) Uani 1 1 d .
H29A H 0.7306 -0.2179 0.9734 0.033 Uiso 1 1 calc R
H29B H 0.6661 -0.2354 1.0275 0.033 Uiso 1 1 calc R
C30 C 0.7383(4) -0.0664(5) 1.0369(2) 0.0229(13) Uani 1 1 d .
C31 C 0.8268(3) -0.0338(5) 1.0290(2) 0.0288(13) Uani 1 1 d .
H31 H 0.8535 -0.0737 0.9957 0.035 Uiso 1 1 calc R
C32 C 0.8774(4) 0.0560(5) 1.0688(3) 0.0365(15) Uani 1 1 d .
H32 H 0.9396 0.0744 1.0643 0.044 Uiso 1 1 calc R
C33 C 0.8378(4) 0.1185(5) 1.1148(3) 0.0378(15) Uani 1 1 d .
H33 H 0.8722 0.1813 1.1417 0.045 Uiso 1 1 calc R
C34 C 0.7491(4) 0.0904(6) 1.1219(3) 0.0446(17) Uani 1 1 d .
H34 H 0.7212 0.1350 1.1531 0.053 Uiso 1 1 calc R
C35 C 0.6999(4) -0.0024(5) 1.0840(2) 0.0331(15) Uani 1 1 d .
H35 H 0.6388 -0.0230 1.0901 0.040 Uiso 1 1 calc R
H3N H 0.573(4) -0.100(5) 0.973(2) 0.040 Uiso 1 1 d .
loop_
_atom_site_aniso_label
_atom_site_aniso_U_11
_atom_site_aniso_U_22
_atom_site_aniso_U_33
_atom_site_aniso_U_23
_atom_site_aniso_U_13
_atom_site_aniso_U_12
Ru1 0.0176(2) 0.0153(2) 0.0137(2) 0.0007(2) 0.00234(16) 0.0000(2)
Cl1 0.0251(8) 0.0249(8) 0.0234(7) 0.0011(6) 0.0085(6) 0.0050(6)
Cl2 0.0268(8) 0.0230(8) 0.0215(7) 0.0007(6) 0.0098(6) 0.0020(6)
N1 0.015(2) 0.012(2) 0.012(2) 0.0020(18) 0.0017(19) -0.0037(18)
N2 0.010(2) 0.018(2) 0.018(2) 0.0041(19) 0.0008(19) -0.0054(19)
N3 0.018(3) 0.025(3) 0.014(3) 0.001(2) 0.003(2) 0.003(2)
C1 0.015(3) 0.021(3) 0.015(3) -0.003(2) 0.006(2) 0.004(2)
C2 0.020(3) 0.015(3) 0.017(3) 0.005(2) 0.000(2) -0.001(2)
C3 0.022(3) 0.021(3) 0.022(3) 0.004(2) 0.002(2) 0.002(2)
C4 0.019(3) 0.014(3) 0.016(3) 0.007(2) -0.001(2) -0.003(2)
C5 0.017(3) 0.017(3) 0.018(3) 0.000(2) 0.001(2) 0.003(2)
C6 0.013(3) 0.024(3) 0.024(3) 0.003(3) 0.002(2) -0.002(2)
C7 0.028(3) 0.013(3) 0.017(3) 0.001(2) -0.003(2) -0.005(2)
C8 0.023(3) 0.015(3) 0.013(3) 0.004(2) 0.004(2) 0.003(2)
C9 0.018(3) 0.013(3) 0.011(3) 0.004(2) -0.001(2) -0.001(2)
C10 0.020(3) 0.024(3) 0.025(3) 0.000(2) 0.004(3) -0.001(2)
C11 0.023(3) 0.029(3) 0.028(3) -0.003(3) 0.004(3) -0.012(3)
C12 0.019(3) 0.025(3) 0.024(3) -0.005(2) 0.003(2) 0.002(2)
C13 0.019(3) 0.012(3) 0.015(3) 0.005(2) -0.001(2) -0.006(2)
C14 0.019(3) 0.014(3) 0.022(3) -0.001(2) 0.012(3) -0.002(2)
C15 0.014(3) 0.019(3) 0.029(3) -0.003(2) 0.001(3) -0.003(2)
C16 0.023(3) 0.017(3) 0.029(3) 0.001(3) -0.002(3) -0.002(2)
C17 0.027(3) 0.024(3) 0.017(3) -0.001(2) 0.003(3) -0.002(3)
C18 0.023(3) 0.020(3) 0.015(3) 0.000(2) 0.001(2) 0.000(2)
C19 0.022(3) 0.027(3) 0.022(3) -0.001(2) 0.005(2) 0.000(2)
C20 0.026(3) 0.036(4) 0.031(3) -0.005(3) 0.001(3) 0.002(3)
C21 0.025(3) 0.037(4) 0.019(3) -0.009(3) -0.001(3) -0.001(3)
C22 0.024(3) 0.018(3) 0.021(3) 0.000(2) 0.005(2) 0.001(2)
C23 0.016(3) 0.021(3) 0.019(3) -0.001(2) 0.002(2) 0.002(2)
C24 0.020(3) 0.024(3) 0.015(3) -0.004(2) 0.000(2) -0.003(2)
C25 0.016(3) 0.019(3) 0.032(3) -0.006(3) 0.006(3) -0.002(2)
C26 0.022(3) 0.018(3) 0.041(4) 0.004(3) 0.007(3) -0.002(2)
C27 0.020(3) 0.025(3) 0.022(3) 0.001(3) 0.004(2) 0.000(3)
C28 0.016(3) 0.022(3) 0.023(3) 0.000(3) 0.011(3) 0.002(2)
C29 0.030(3) 0.024(3) 0.023(3) 0.003(2) -0.007(3) 0.001(3)
C30 0.027(3) 0.021(3) 0.018(3) 0.001(2) -0.001(3) -0.001(2)
C31 0.029(3) 0.029(3) 0.028(3) -0.004(3) 0.004(3) -0.001(3)
C32 0.026(3) 0.042(4) 0.039(4) -0.005(3) 0.000(3) -0.004(3)
C33 0.043(4) 0.033(4) 0.033(4) -0.010(3) -0.004(3) -0.001(3)
C34 0.048(4) 0.056(4) 0.028(4) -0.024(3) 0.003(3) -0.005(4)
C35 0.029(3) 0.044(4) 0.025(3) 0.000(3) 0.002(3) -0.002(3)
loop_
_atom_type_symbol
_atom_type_description
_atom_type_scat_dispersion_real
_atom_type_scat_dispersion_imag
_atom_type_scat_source
C C 0.0033 0.0016 'International Tables Vol C Tables 4.2.6.8 and 6.1.1.4'
H H 0.0000 0.0000 'International Tables Vol C Tables 4.2.6.8 and 6.1.1.4'
N N 0.0061 0.0033 'International Tables Vol C Tables 4.2.6.8 and 6.1.1.4'
O O 0.0106 0.0060 'International Tables Vol C Tables 4.2.6.8 and 6.1.1.4'
Cl Cl 0.1484 0.1585 'International Tables Vol C Tables 4.2.6.8 and 6.1.1.4'
Ru Ru -1.2594 0.8363 'International Tables Vol C Tables 4.2.6.8 and 6.1.1.4'
loop_
_geom_angle_atom_site_label_1
_geom_angle_atom_site_label_2
_geom_angle_atom_site_label_3
_geom_angle
C22 Ru1 C1 100.9(2)
C22 Ru1 N3 80.74(19)
C1 Ru1 N3 172.45(16)
C22 Ru1 Cl2 104.29(15)
C1 Ru1 Cl2 87.15(13)
N3 Ru1 Cl2 85.31(11)
C22 Ru1 Cl1 96.81(14)
C1 Ru1 Cl1 98.42(13)
N3 Ru1 Cl1 88.65(11)
Cl2 Ru1 Cl1 156.77(5)
C1 N1 C4 125.9(4)
C1 N1 C2 113.6(4)
C4 N1 C2 118.2(4)
C1 N2 C13 127.9(4)
C1 N2 C3 114.5(4)
C13 N2 C3 117.6(3)
C28 N3 C29 113.7(4)
C28 N3 Ru1 107.9(3)
C29 N3 Ru1 120.9(3)
C28 N3 H3N 105(4)
C29 N3 H3N 103(4)
Ru1 N3 H3N 105(4)
N2 C1 N1 106.4(4)
N2 C1 Ru1 123.2(3)
N1 C1 Ru1 129.1(3)
N1 C2 C3 102.7(4)
N1 C2 H2A 111.2
C3 C2 H2A 111.2
N1 C2 H2B 111.2
C3 C2 H2B 111.2
H2A C2 H2B 109.1
N2 C3 C2 102.2(4)
N2 C3 H3A 111.3
C2 C3 H3A 111.3
N2 C3 H3B 111.3
C2 C3 H3B 111.3
H3A C3 H3B 109.2
C5 C4 C9 121.8(4)
C5 C4 N1 120.0(4)
C9 C4 N1 118.2(4)
C4 C5 C6 118.1(4)
C4 C5 C10 122.1(4)
C6 C5 C10 119.8(4)
C7 C6 C5 122.2(5)
C7 C6 H6 118.9
C5 C6 H6 118.9
C6 C7 C8 117.6(4)
C6 C7 C11 122.1(4)
C8 C7 C11 120.3(4)
C9 C8 C7 122.5(4)
C9 C8 H8 118.8
C7 C8 H8 118.8
C8 C9 C4 117.8(4)
C8 C9 C12 120.7(4)
C4 C9 C12 121.4(4)
C5 C10 H10A 109.5
C5 C10 H10B 109.5
H10A C10 H10B 109.5
C5 C10 H10C 109.5
H10A C10 H10C 109.5
H10B C10 H10C 109.5
C7 C11 H11A 109.5
C7 C11 H11B 109.5
H11A C11 H11B 109.5
C7 C11 H11C 109.5
H11A C11 H11C 109.5
H11B C11 H11C 109.5
C9 C12 H12A 109.5
C9 C12 H12B 109.5
H12A C12 H12B 109.5
C9 C12 H12C 109.5
H12A C12 H12C 109.5
H12B C12 H12C 109.5
C14 C13 C18 121.4(5)
C14 C13 N2 118.7(4)
C18 C13 N2 119.3(4)
C15 C14 C13 118.5(4)
C15 C14 C19 119.7(4)
C13 C14 C19 121.7(4)
C14 C15 C16 122.2(5)
C14 C15 H15 118.9
C16 C15 H15 118.9
C17 C16 C15 117.1(5)
C17 C16 C20 121.3(5)
C15 C16 C20 121.6(5)
C18 C17 C16 122.7(5)
C18 C17 H17 118.6
C16 C17 H17 118.6
C17 C18 C13 118.0(5)
C17 C18 C21 119.0(4)
C13 C18 C21 122.9(4)
C14 C19 H19A 109.5
C14 C19 H19B 109.5
H19A C19 H19B 109.5
C14 C19 H19C 109.5
H19A C19 H19C 109.5
H19B C19 H19C 109.5
C16 C20 H20A 109.5
C16 C20 H20B 109.5
H20A C20 H20B 109.5
C16 C20 H20C 109.5
H20A C20 H20C 109.5
H20B C20 H20C 109.5
C18 C21 H21A 109.5
C18 C21 H21B 109.5
H21A C21 H21B 109.5
C18 C21 H21C 109.5
H21A C21 H21C 109.5
H21B C21 H21C 109.5
C23 C22 Ru1 120.0(4)
C23 C22 H22 120.0
Ru1 C22 H22 120.0
C24 C23 C28 119.7(5)
C24 C23 C22 123.8(5)
C28 C23 C22 116.4(4)
C25 C24 C23 119.7(5)
C25 C24 H24 120.2
C23 C24 H24 120.2
C24 C25 C26 119.8(5)
C24 C25 H25 120.1
C26 C25 H25 120.1
C25 C26 C27 121.4(5)
C25 C26 H26 119.3
C27 C26 H26 119.3
C28 C27 C26 118.8(5)
C28 C27 H27 120.6
C26 C27 H27 120.6
C27 C28 C23 120.6(5)
C27 C28 N3 125.8(5)
C23 C28 N3 113.6(4)
N3 C29 C30 112.1(4)
N3 C29 H29A 109.2
C30 C29 H29A 109.2
N3 C29 H29B 109.2
C30 C29 H29B 109.2
H29A C29 H29B 107.9
C31 C30 C35 118.1(5)
C31 C30 C29 120.3(5)
C35 C30 C29 121.5(5)
C30 C31 C32 120.9(5)
C30 C31 H31 119.5
C32 C31 H31 119.5
C33 C32 C31 119.9(5)
C33 C32 H32 120.0
C31 C32 H32 120.0
C34 C33 C32 120.0(5)
C34 C33 H33 120.0
C32 C33 H33 120.0
C33 C34 C35 120.2(5)
C33 C34 H34 119.9
C35 C34 H34 119.9
C34 C35 C30 120.9(5)
C34 C35 H35 119.6
C30 C35 H35 119.6
loop_
_geom_bond_atom_site_label_1
_geom_bond_atom_site_label_2
_geom_bond_distance
Ru1 C22 1.816(5)
Ru1 C1 2.016(5)
Ru1 N3 2.209(4)
Ru1 Cl2 2.3310(13)
Ru1 Cl1 2.3395(12)
N1 C1 1.362(6)
N1 C4 1.428(6)
N1 C2 1.475(5)
N2 C1 1.335(6)
N2 C13 1.444(6)
N2 C3 1.481(6)
N3 C28 1.458(6)
N3 C29 1.491(6)
N3 H3N 0.79(5)
C2 C3 1.515(6)
C2 H2A 0.9900
C2 H2B 0.9900
C3 H3A 0.9900
C3 H3B 0.9900
C4 C5 1.387(6)
C4 C9 1.396(6)
C5 C6 1.390(6)
C5 C10 1.495(6)
C6 C7 1.387(6)
C6 H6 0.9500
C7 C8 1.390(6)
C7 C11 1.496(6)
C8 C9 1.384(6)
C8 H8 0.9500
C9 C12 1.502(6)
C10 H10A 0.9800
C10 H10B 0.9800
C10 H10C 0.9800
C11 H11A 0.9800
C11 H11B 0.9800
C11 H11C 0.9800
C12 H12A 0.9800
C12 H12B 0.9800
C12 H12C 0.9800
C13 C14 1.389(6)
C13 C18 1.392(6)
C14 C15 1.386(6)
C14 C19 1.505(6)
C15 C16 1.397(6)
C15 H15 0.9500
C16 C17 1.389(6)
C16 C20 1.490(7)
C17 C18 1.388(6)
C17 H17 0.9500
C18 C21 1.503(6)
C19 H19A 0.9800
C19 H19B 0.9800
C19 H19C 0.9800
C20 H20A 0.9800
C20 H20B 0.9800
C20 H20C 0.9800
C21 H21A 0.9800
C21 H21B 0.9800
C21 H21C 0.9800
C22 C23 1.448(6)
C22 H22 0.9500
C23 C24 1.392(6)
C23 C28 1.395(6)
C24 C25 1.375(6)
C24 H24 0.9500
C25 C26 1.378(6)
C25 H25 0.9500
C26 C27 1.384(6)
C26 H26 0.9500
C27 C28 1.375(6)
C27 H27 0.9500
C29 C30 1.509(6)
C29 H29A 0.9900
C29 H29B 0.9900
C30 C31 1.375(6)
C30 C35 1.386(6)
C31 C32 1.380(7)
C31 H31 0.9500
C32 C33 1.371(7)
C32 H32 0.9500
C33 C34 1.363(7)
C33 H33 0.9500
C34 C35 1.374(7)
C34 H34 0.9500
C35 H35 0.9500
loop_
_geom_torsion_atom_site_label_1
_geom_torsion_atom_site_label_2
_geom_torsion_atom_site_label_3
_geom_torsion_atom_site_label_4
_geom_torsion
C22 Ru1 N3 C28 10.4(3)
Cl2 Ru1 N3 C28 115.7(3)
Cl1 Ru1 N3 C28 -86.8(3)
C22 Ru1 N3 C29 143.6(4)
Cl2 Ru1 N3 C29 -111.0(3)
Cl1 Ru1 N3 C29 46.5(3)
C13 N2 C1 N1 -176.0(4)
C3 N2 C1 N1 2.6(5)
C13 N2 C1 Ru1 15.6(6)
C3 N2 C1 Ru1 -165.9(3)
C4 N1 C1 N2 165.4(4)
C2 N1 C1 N2 2.9(5)
C4 N1 C1 Ru1 -27.1(6)
C2 N1 C1 Ru1 170.4(3)
C22 Ru1 C1 N2 -171.1(4)
Cl2 Ru1 C1 N2 84.9(4)
Cl1 Ru1 C1 N2 -72.5(4)
C22 Ru1 C1 N1 23.2(4)
Cl2 Ru1 C1 N1 -80.8(4)
Cl1 Ru1 C1 N1 121.9(4)
C1 N1 C2 C3 -6.7(5)
C4 N1 C2 C3 -170.7(4)
C1 N2 C3 C2 -6.5(5)
C13 N2 C3 C2 172.2(4)
N1 C2 C3 N2 7.3(4)
C1 N1 C4 C5 105.2(5)
C2 N1 C4 C5 -93.0(5)
C1 N1 C4 C9 -75.2(6)
C2 N1 C4 C9 86.6(5)
C9 C4 C5 C6 2.4(7)
N1 C4 C5 C6 -178.1(4)
C9 C4 C5 C10 -177.0(4)
N1 C4 C5 C10 2.6(7)
C4 C5 C6 C7 -0.6(7)
C10 C5 C6 C7 178.7(4)
C5 C6 C7 C8 -1.8(7)
C5 C6 C7 C11 178.4(5)
C6 C7 C8 C9 2.7(7)
C11 C7 C8 C9 -177.5(4)
C7 C8 C9 C4 -1.1(7)
C7 C8 C9 C12 175.1(4)
C5 C4 C9 C8 -1.5(7)
N1 C4 C9 C8 178.9(4)
C5 C4 C9 C12 -177.6(4)
N1 C4 C9 C12 2.8(6)
C1 N2 C13 C14 88.5(6)
C3 N2 C13 C14 -90.1(5)
C1 N2 C13 C18 -100.4(5)
C3 N2 C13 C18 81.1(5)
C18 C13 C14 C15 3.6(7)
N2 C13 C14 C15 174.6(4)
C18 C13 C14 C19 -173.3(4)
N2 C13 C14 C19 -2.3(7)
C13 C14 C15 C16 -3.2(7)
C19 C14 C15 C16 173.7(4)
C14 C15 C16 C17 1.1(7)
C14 C15 C16 C20 -175.9(4)
C15 C16 C17 C18 0.9(7)
C20 C16 C17 C18 177.9(5)
C16 C17 C18 C13 -0.5(7)
C16 C17 C18 C21 -176.9(5)
C14 C13 C18 C17 -1.7(7)
N2 C13 C18 C17 -172.7(4)
C14 C13 C18 C21 174.5(4)
N2 C13 C18 C21 3.5(7)
C1 Ru1 C22 C23 178.6(4)
N3 Ru1 C22 C23 -8.9(4)
Cl2 Ru1 C22 C23 -91.6(4)
Cl1 Ru1 C22 C23 78.6(4)
Ru1 C22 C23 C24 -171.7(4)
Ru1 C22 C23 C28 5.8(6)
C28 C23 C24 C25 -1.5(7)
C22 C23 C24 C25 176.0(4)
C23 C24 C25 C26 1.1(7)
C24 C25 C26 C27 0.2(7)
C25 C26 C27 C28 -1.0(7)
C26 C27 C28 C23 0.7(7)
C26 C27 C28 N3 179.2(4)
C24 C23 C28 C27 0.6(7)
C22 C23 C28 C27 -177.0(4)
C24 C23 C28 N3 -178.1(4)
C22 C23 C28 N3 4.3(6)
C29 N3 C28 C27 34.3(6)
Ru1 N3 C28 C27 171.3(4)
C29 N3 C28 C23 -147.1(4)
Ru1 N3 C28 C23 -10.1(5)
C28 N3 C29 C30 -176.6(4)
Ru1 N3 C29 C30 52.6(5)
N3 C29 C30 C31 -112.8(5)
N3 C29 C30 C35 70.4(6)
C35 C30 C31 C32 2.8(8)
C29 C30 C31 C32 -174.1(5)
C30 C31 C32 C33 -3.2(8)
C31 C32 C33 C34 1.1(8)
C32 C33 C34 C35 1.4(9)
C33 C34 C35 C30 -1.8(9)
C31 C30 C35 C34 -0.3(8)
C29 C30 C35 C34 176.6(5)
#------------------------------------------------------------------------------
#$Date: 2016-03-21 07:44:06 +0200 (Mon, 21 Mar 2016) $
#$Revision: 178579 $
#$URL: svn://www.crystallography.net/cod/cif/4/06/89/4068964.cif $
#------------------------------------------------------------------------------
#
# This file is available in the Crystallography Open Database (COD),
# http://www.crystallography.net/
#
# All data on this site have been placed in the public domain by the
# contributors.
#
data_4068964
loop_
_publ_author_name
'Szadkowska, Anna'
'Makal, Anna'
'Wo\'zniak, Krzysztof'
'Kadyrov, Renat'
'Grela, Karol'
_publ_section_title
;
 Ruthenium Olefin Metathesis Initiators Bearing Chelating Sulfoxide
 Ligands
;
_journal_issue                   9
_journal_name_full               Organometallics
_journal_page_first              2693
_journal_paper_doi               10.1021/om801183g
_journal_volume                  28
_journal_year                    2009
_chemical_formula_sum            'C32 H40 Cl2 N2 O2 Ru S'
_chemical_formula_weight         688.69
_chemical_name_systematic
;
 ?
;
_space_group_IT_number           14
_symmetry_cell_setting           monoclinic
_symmetry_space_group_name_Hall  '-P 2yn'
_symmetry_space_group_name_H-M   'P 1 21/n 1'
_atom_sites_solution_hydrogens   geom
_atom_sites_solution_primary     direct
_atom_sites_solution_secondary   difmap
_audit_creation_method           SHELXL-97
_cell_angle_alpha                90.00
_cell_angle_beta                 104.720(2)
_cell_angle_gamma                90.00
_cell_formula_units_Z            4
_cell_length_a                   9.8341(3)
_cell_length_b                   21.5649(6)
_cell_length_c                   15.0334(4)
_cell_measurement_reflns_used    480
_cell_measurement_temperature    90(2)
_cell_measurement_theta_max      27.19
_cell_measurement_theta_min      1.89
_cell_volume                     3083.52(15)
_computing_cell_refinement       'Bruker SMART'
_computing_data_collection       'Bruker SMART'
_computing_data_reduction        'Bruker SAINT'
_computing_structure_refinement  'SHELXL-97 (Sheldrick, 1997)'
_computing_structure_solution    'SHELXL-97 (Sheldrick, 1997)'
_diffrn_ambient_temperature      90(2)
_diffrn_measured_fraction_theta_full 0.996
_diffrn_measured_fraction_theta_max 0.996
_diffrn_radiation_monochromator  graphite
_diffrn_radiation_source         'fine-focus sealed tube'
_diffrn_radiation_type           MoK\a
_diffrn_radiation_wavelength     0.71073
_diffrn_reflns_av_R_equivalents  0.0705
_diffrn_reflns_av_sigmaI/netI    0.0451
_diffrn_reflns_limit_h_max       12
_diffrn_reflns_limit_h_min       -12
_diffrn_reflns_limit_k_max       27
_diffrn_reflns_limit_k_min       -27
_diffrn_reflns_limit_l_max       19
_diffrn_reflns_limit_l_min       -19
_diffrn_reflns_number            46488
_diffrn_reflns_theta_full        27.19
_diffrn_reflns_theta_max         27.19
_diffrn_reflns_theta_min         1.89
_exptl_absorpt_coefficient_mu    0.782
_exptl_absorpt_correction_T_max  0.986
_exptl_absorpt_correction_T_min  0.897
_exptl_absorpt_correction_type   multi-scan
_exptl_absorpt_process_details
'Sheldrick, G. M. (1996). SADABS. University of G&#x00F6;ttingen, Germany.'
_exptl_crystal_colour            green
_exptl_crystal_density_diffrn    1.483
_exptl_crystal_density_method    'not measured'
_exptl_crystal_description       planar
_exptl_crystal_F_000             1424
_exptl_crystal_size_max          0.1
_exptl_crystal_size_mid          0.09
_exptl_crystal_size_min          0.02
_refine_diff_density_max         0.514
_refine_diff_density_min         -0.394
_refine_diff_density_rms         0.086
_refine_ls_extinction_method     none
_refine_ls_goodness_of_fit_ref   1.015
_refine_ls_hydrogen_treatment    mixed
_refine_ls_matrix_type           full
_refine_ls_number_parameters     378
_refine_ls_number_reflns         6849
_refine_ls_number_restraints     0
_refine_ls_restrained_S_all      1.015
_refine_ls_R_factor_all          0.0561
_refine_ls_R_factor_gt           0.0307
_refine_ls_shift/su_max          0.001
_refine_ls_shift/su_mean         0.000
_refine_ls_structure_factor_coef Fsqd
_refine_ls_weighting_details
'calc w=1/[\s^2^(Fo^2^)+(0.0257P)^2^+2.4236P] where P=(Fo^2^+2Fc^2^)/3'
_refine_ls_weighting_scheme      calc
_refine_ls_wR_factor_gt          0.0610
_refine_ls_wR_factor_ref         0.0693
_reflns_number_gt                5168
_reflns_number_total             6849
_reflns_threshold_expression     >2sigma(I)
_cod_data_source_file            om801183g_si_002.cif
_cod_data_source_block           c043501_20102008_0m
_cod_original_sg_symbol_H-M      P2(1)/n
_cod_database_code               4068964
loop_
_symmetry_equiv_pos_as_xyz
'x, y, z'
'-x+1/2, y+1/2, -z+1/2'
'-x, -y, -z'
'x-1/2, -y-1/2, z-1/2'
loop_
_atom_site_label
_atom_site_type_symbol
_atom_site_fract_x
_atom_site_fract_y
_atom_site_fract_z
_atom_site_U_iso_or_equiv
_atom_site_adp_type
_atom_site_occupancy
_atom_site_symmetry_multiplicity
_atom_site_calc_flag
_atom_site_refinement_flags
Ru1 Ru 0.59561(2) 0.122172(8) 0.163449(14) 0.01144(6) Uani 1 1 d .
Cl1 Cl 0.81589(7) 0.10729(3) 0.27327(4) 0.01660(14) Uani 1 1 d .
Cl2 Cl 0.36639(6) 0.11557(3) 0.06309(4) 0.01737(13) Uani 1 1 d .
S1 S 0.66579(7) 0.10994(3) 0.02434(4) 0.01270(13) Uani 1 1 d .
O1 O 0.59957(19) 0.06456(8) -0.04749(12) 0.0191(4) Uani 1 1 d .
N1 N 0.4731(2) 0.19598(9) 0.30671(14) 0.0153(5) Uani 1 1 d .
N2 N 0.4885(2) 0.09935(9) 0.33897(14) 0.0160(5) Uani 1 1 d .
C1 C 0.5156(3) 0.14083(11) 0.27668(17) 0.0143(5) Uani 1 1 d .
C2 C 0.4224(3) 0.18810(12) 0.38359(18) 0.0211(6) Uani 1 1 d .
H2 H 0.3887 0.2190 0.4155 0.025 Uiso 1 1 calc R
C3 C 0.4310(3) 0.12749(12) 0.40344(19) 0.0229(6) Uani 1 1 d .
H3 H 0.4036 0.1081 0.4514 0.027 Uiso 1 1 calc R
C4 C 0.4932(3) 0.25876(11) 0.27804(18) 0.0154(5) Uani 1 1 d .
C5 C 0.3893(3) 0.28635(11) 0.20944(18) 0.0168(5) Uani 1 1 d .
C6 C 0.4113(3) 0.34745(12) 0.18724(19) 0.0207(6) Uani 1 1 d .
H6 H 0.3433 0.3672 0.1416 0.025 Uiso 1 1 calc R
C7 C 0.5313(3) 0.37999(12) 0.23090(19) 0.0226(6) Uani 1 1 d .
C8 C 0.6303(3) 0.35088(12) 0.3006(2) 0.0226(6) Uani 1 1 d .
H8 H 0.7103 0.3726 0.3310 0.027 Uiso 1 1 calc R
C9 C 0.6130(3) 0.28986(12) 0.32602(18) 0.0179(6) Uani 1 1 d .
C10 C 0.2592(3) 0.25116(12) 0.1609(2) 0.0221(6) Uani 1 1 d .
H10A H 0.2853 0.2162 0.1293 0.033 Uiso 1 1 calc R
H10B H 0.1982 0.2779 0.1174 0.033 Uiso 1 1 calc R
H10C H 0.2111 0.2369 0.2052 0.033 Uiso 1 1 calc R
C11 C 0.5537(4) 0.44540(12) 0.2024(2) 0.0335(8) Uani 1 1 d .
H11A H 0.6346 0.4628 0.2447 0.050 Uiso 1 1 calc R
H11B H 0.4723 0.4699 0.2025 0.050 Uiso 1 1 calc R
H11C H 0.5685 0.4451 0.1416 0.050 Uiso 1 1 calc R
C12 C 0.7226(3) 0.25783(13) 0.3995(2) 0.0247(6) Uani 1 1 d .
H12A H 0.6819 0.2449 0.4481 0.037 Uiso 1 1 calc R
H12B H 0.7988 0.2859 0.4235 0.037 Uiso 1 1 calc R
H12C H 0.7572 0.2222 0.3737 0.037 Uiso 1 1 calc R
C13 C 0.5103(3) 0.03331(11) 0.34191(17) 0.0154(5) Uani 1 1 d .
C14 C 0.6320(3) 0.00914(12) 0.39999(18) 0.0177(6) Uani 1 1 d .
C15 C 0.6499(3) -0.05460(12) 0.39934(18) 0.0183(6) Uani 1 1 d .
H15 H 0.7329 -0.0717 0.4348 0.022 Uiso 1 1 calc R
C16 C 0.5480(3) -0.09395(11) 0.34749(18) 0.0172(6) Uani 1 1 d .
C17 C 0.4232(3) -0.06804(11) 0.29702(18) 0.0174(5) Uani 1 1 d .
H17 H 0.3520 -0.0940 0.2649 0.021 Uiso 1 1 calc R
C18 C 0.4013(3) -0.00425(11) 0.29297(18) 0.0162(5) Uani 1 1 d .
C19 C 0.7385(3) 0.04925(13) 0.46437(19) 0.0257(6) Uani 1 1 d .
H19A H 0.7475 0.0879 0.4348 0.038 Uiso 1 1 calc R
H19B H 0.8277 0.0285 0.4801 0.038 Uiso 1 1 calc R
H19C H 0.7080 0.0569 0.5192 0.038 Uiso 1 1 calc R
C20 C 0.5749(3) -0.16267(11) 0.34665(19) 0.0205(6) Uani 1 1 d .
H20A H 0.4876 -0.1840 0.3226 0.031 Uiso 1 1 calc R
H20B H 0.6165 -0.1766 0.4082 0.031 Uiso 1 1 calc R
H20C H 0.6377 -0.1711 0.3086 0.031 Uiso 1 1 calc R
C21 C 0.2657(3) 0.02331(12) 0.2374(2) 0.0220(6) Uani 1 1 d .
H21A H 0.2799 0.0405 0.1815 0.033 Uiso 1 1 calc R
H21B H 0.2358 0.0555 0.2723 0.033 Uiso 1 1 calc R
H21C H 0.1950 -0.0084 0.2229 0.033 Uiso 1 1 calc R
C22 C 0.6332(3) 0.20452(10) 0.14459(18) 0.0140(5) Uani 1 1 d .
H22 H 0.6615 0.2309 0.1948 0.017 Uiso 1 1 calc R
C23 C 0.6189(3) 0.22856(11) 0.05180(17) 0.0140(5) Uani 1 1 d .
C24 C 0.5923(3) 0.29068(11) 0.02724(18) 0.0160(5) Uani 1 1 d .
H24 H 0.5941 0.3203 0.0724 0.019 Uiso 1 1 calc R
C25 C 0.5632(3) 0.30815(11) -0.06428(19) 0.0183(6) Uani 1 1 d .
H25 H 0.5440 0.3495 -0.0802 0.022 Uiso 1 1 calc R
C26 C 0.5624(3) 0.26485(11) -0.13249(19) 0.0191(6) Uani 1 1 d .
H26 H 0.5410 0.2771 -0.1938 0.023 Uiso 1 1 calc R
C27 C 0.5936(3) 0.20319(11) -0.10922(18) 0.0174(5) Uani 1 1 d .
H27 H 0.5947 0.1738 -0.1544 0.021 Uiso 1 1 calc R
C28 C 0.6229(3) 0.18649(11) -0.01808(17) 0.0137(5) Uani 1 1 d .
C29 C 0.8572(3) 0.10562(11) 0.03024(18) 0.0146(5) Uani 1 1 d .
C30 C 0.9009(3) 0.04270(11) 0.07469(19) 0.0204(6) Uani 1 1 d .
H30A H 0.8441 0.0108 0.0390 0.031 Uiso 1 1 calc R
H30B H 0.8880 0.0425 0.1359 0.031 Uiso 1 1 calc R
H30C H 0.9980 0.0352 0.0772 0.031 Uiso 1 1 calc R
C31 C 0.8761(3) 0.10759(12) -0.06717(18) 0.0202(6) Uani 1 1 d .
H31A H 0.8504 0.1479 -0.0932 0.030 Uiso 1 1 calc R
H31B H 0.8172 0.0768 -0.1041 0.030 Uiso 1 1 calc R
H31C H 0.9726 0.0994 -0.0657 0.030 Uiso 1 1 calc R
C32 C 0.9371(3) 0.15854(12) 0.08765(19) 0.0200(6) Uani 1 1 d .
H32A H 1.0360 0.1537 0.0932 0.030 Uiso 1 1 calc R
H32B H 0.9199 0.1579 0.1477 0.030 Uiso 1 1 calc R
H32C H 0.9059 0.1973 0.0582 0.030 Uiso 1 1 calc R
O2 O 0.5924(2) 0.01539(8) 0.15895(16) 0.0175(4) Uani 1 1 d .
H1O H 0.597(3) -0.0034(15) 0.202(2) 0.029(10) Uiso 1 1 d .
H2O H 0.540(3) -0.0036(14) 0.118(2) 0.027(9) Uiso 1 1 d .
loop_
_atom_site_aniso_label
_atom_site_aniso_U_11
_atom_site_aniso_U_22
_atom_site_aniso_U_33
_atom_site_aniso_U_23
_atom_site_aniso_U_13
_atom_site_aniso_U_12
Ru1 0.01327(11) 0.01123(9) 0.01000(10) -0.00057(8) 0.00327(8) -0.00095(8)
Cl1 0.0158(3) 0.0194(3) 0.0135(3) -0.0010(2) 0.0017(3) 0.0003(2)
Cl2 0.0152(3) 0.0199(3) 0.0158(3) 0.0001(2) 0.0016(3) -0.0013(2)
S1 0.0154(3) 0.0116(3) 0.0116(3) -0.0014(2) 0.0044(3) -0.0008(2)
O1 0.0234(11) 0.0171(9) 0.0163(10) -0.0053(7) 0.0038(8) -0.0043(7)
N1 0.0171(12) 0.0167(10) 0.0131(11) -0.0012(8) 0.0055(9) 0.0000(9)
N2 0.0222(13) 0.0154(10) 0.0124(11) 0.0008(8) 0.0080(10) -0.0014(9)
C1 0.0115(13) 0.0158(11) 0.0152(13) -0.0021(10) 0.0028(11) -0.0020(9)
C2 0.0273(16) 0.0231(13) 0.0162(14) -0.0027(11) 0.0115(12) 0.0021(11)
C3 0.0306(16) 0.0254(14) 0.0165(14) -0.0006(12) 0.0132(12) -0.0002(12)
C4 0.0195(15) 0.0138(11) 0.0164(14) -0.0016(10) 0.0110(11) 0.0013(10)
C5 0.0183(15) 0.0189(12) 0.0150(14) -0.0028(10) 0.0076(11) 0.0033(10)
C6 0.0248(16) 0.0202(13) 0.0198(15) 0.0019(11) 0.0106(12) 0.0087(11)
C7 0.0308(16) 0.0163(12) 0.0268(16) -0.0023(12) 0.0182(13) 0.0018(12)
C8 0.0226(16) 0.0212(13) 0.0292(16) -0.0119(12) 0.0160(13) -0.0048(11)
C9 0.0186(15) 0.0204(12) 0.0171(14) -0.0081(10) 0.0092(12) 0.0012(10)
C10 0.0170(15) 0.0272(14) 0.0213(15) -0.0018(11) 0.0038(12) 0.0030(11)
C11 0.046(2) 0.0174(13) 0.045(2) -0.0030(13) 0.0280(17) 0.0003(13)
C12 0.0211(16) 0.0287(14) 0.0231(16) -0.0076(12) 0.0033(13) -0.0011(12)
C13 0.0211(15) 0.0151(12) 0.0120(13) 0.0013(10) 0.0076(11) -0.0019(10)
C14 0.0210(15) 0.0241(13) 0.0089(13) 0.0018(10) 0.0055(11) -0.0022(11)
C15 0.0174(15) 0.0239(13) 0.0141(14) 0.0060(10) 0.0052(11) 0.0006(11)
C16 0.0214(15) 0.0167(12) 0.0157(14) 0.0046(10) 0.0088(12) -0.0014(10)
C17 0.0190(15) 0.0198(12) 0.0141(14) 0.0006(10) 0.0053(11) -0.0042(10)
C18 0.0185(15) 0.0200(12) 0.0122(14) 0.0014(10) 0.0080(11) 0.0003(10)
C19 0.0311(18) 0.0276(14) 0.0160(15) 0.0025(11) 0.0019(13) -0.0047(12)
C20 0.0218(16) 0.0202(13) 0.0186(15) 0.0040(11) 0.0033(12) 0.0007(11)
C21 0.0190(15) 0.0206(13) 0.0263(16) 0.0025(11) 0.0058(13) -0.0002(11)
C22 0.0147(14) 0.0126(11) 0.0162(13) -0.0031(10) 0.0064(11) 0.0008(9)
C23 0.0101(13) 0.0168(12) 0.0152(13) -0.0005(10) 0.0036(11) 0.0005(9)
C24 0.0143(14) 0.0142(11) 0.0197(14) -0.0022(10) 0.0049(11) -0.0004(10)
C25 0.0148(14) 0.0166(12) 0.0238(15) 0.0052(11) 0.0053(12) 0.0014(10)
C26 0.0202(15) 0.0233(13) 0.0146(14) 0.0047(10) 0.0061(12) 0.0038(11)
C27 0.0176(14) 0.0210(13) 0.0143(13) 0.0004(10) 0.0051(11) 0.0020(10)
C28 0.0125(13) 0.0130(11) 0.0154(13) 0.0015(9) 0.0031(11) 0.0005(9)
C29 0.0113(13) 0.0171(12) 0.0167(14) -0.0005(10) 0.0059(11) 0.0000(9)
C30 0.0225(16) 0.0198(13) 0.0195(15) 0.0014(11) 0.0066(12) 0.0073(11)
C31 0.0219(15) 0.0225(13) 0.0190(15) 0.0003(10) 0.0101(12) 0.0038(11)
C32 0.0157(14) 0.0229(13) 0.0214(15) -0.0009(11) 0.0050(12) -0.0022(11)
O2 0.0220(11) 0.0159(9) 0.0133(10) 0.0006(9) 0.0023(9) -0.0049(8)
loop_
_atom_type_symbol
_atom_type_description
_atom_type_scat_dispersion_real
_atom_type_scat_dispersion_imag
_atom_type_scat_source
C C 0.0033 0.0016 'International Tables Vol C Tables 4.2.6.8 and 6.1.1.4'
H H 0.0000 0.0000 'International Tables Vol C Tables 4.2.6.8 and 6.1.1.4'
N N 0.0061 0.0033 'International Tables Vol C Tables 4.2.6.8 and 6.1.1.4'
O O 0.0106 0.0060 'International Tables Vol C Tables 4.2.6.8 and 6.1.1.4'
S S 0.1246 0.1234 'International Tables Vol C Tables 4.2.6.8 and 6.1.1.4'
Cl Cl 0.1484 0.1585 'International Tables Vol C Tables 4.2.6.8 and 6.1.1.4'
Ru Ru -1.2594 0.8363 'International Tables Vol C Tables 4.2.6.8 and 6.1.1.4'
loop_
_geom_angle_atom_site_label_1
_geom_angle_atom_site_label_2
_geom_angle_atom_site_label_3
_geom_angle
C22 Ru1 C1 94.09(10)
C22 Ru1 O2 163.05(9)
C1 Ru1 O2 102.21(8)
C22 Ru1 Cl2 98.88(8)
C1 Ru1 Cl2 92.05(7)
O2 Ru1 Cl2 85.29(6)
C22 Ru1 S1 81.82(8)
C1 Ru1 S1 172.86(7)
O2 Ru1 S1 82.42(6)
Cl2 Ru1 S1 82.85(2)
C22 Ru1 Cl1 93.06(8)
C1 Ru1 Cl1 85.75(7)
O2 Ru1 Cl1 83.64(6)
Cl2 Ru1 Cl1 167.98(2)
S1 Ru1 Cl1 100.26(2)
O1 S1 C28 109.35(11)
O1 S1 C29 104.68(11)
C28 S1 C29 101.98(11)
O1 S1 Ru1 122.88(8)
C28 S1 Ru1 96.72(8)
C29 S1 Ru1 118.62(9)
C1 N1 C2 111.9(2)
C1 N1 C4 129.4(2)
C2 N1 C4 118.0(2)
C1 N2 C3 112.2(2)
C1 N2 C13 127.9(2)
C3 N2 C13 119.9(2)
N2 C1 N1 102.3(2)
N2 C1 Ru1 127.64(17)
N1 C1 Ru1 130.05(18)
C3 C2 N1 106.9(2)
C3 C2 H2 126.5
N1 C2 H2 126.5
C2 C3 N2 106.7(2)
C2 C3 H3 126.7
N2 C3 H3 126.7
C5 C4 C9 123.1(2)
C5 C4 N1 119.4(2)
C9 C4 N1 117.3(2)
C4 C5 C6 117.1(2)
C4 C5 C10 121.2(2)
C6 C5 C10 121.7(2)
C7 C6 C5 122.1(3)
C7 C6 H6 118.9
C5 C6 H6 118.9
C8 C7 C6 118.6(2)
C8 C7 C11 120.9(3)
C6 C7 C11 120.5(3)
C7 C8 C9 121.6(3)
C7 C8 H8 119.2
C9 C8 H8 119.2
C4 C9 C8 117.4(3)
C4 C9 C12 121.1(2)
C8 C9 C12 121.5(3)
C5 C10 H10A 109.5
C5 C10 H10B 109.5
H10A C10 H10B 109.5
C5 C10 H10C 109.5
H10A C10 H10C 109.5
H10B C10 H10C 109.5
C7 C11 H11A 109.5
C7 C11 H11B 109.5
H11A C11 H11B 109.5
C7 C11 H11C 109.5
H11A C11 H11C 109.5
H11B C11 H11C 109.5
C9 C12 H12A 109.5
C9 C12 H12B 109.5
H12A C12 H12B 109.5
C9 C12 H12C 109.5
H12A C12 H12C 109.5
H12B C12 H12C 109.5
C14 C13 C18 122.5(2)
C14 C13 N2 119.2(2)
C18 C13 N2 118.0(2)
C15 C14 C13 117.2(2)
C15 C14 C19 120.4(2)
C13 C14 C19 122.4(2)
C14 C15 C16 122.3(3)
C14 C15 H15 118.9
C16 C15 H15 118.9
C17 C16 C15 118.2(2)
C17 C16 C20 121.7(2)
C15 C16 C20 120.1(2)
C16 C17 C18 121.9(2)
C16 C17 H17 119.1
C18 C17 H17 119.1
C17 C18 C13 117.5(2)
C17 C18 C21 121.4(2)
C13 C18 C21 121.1(2)
C14 C19 H19A 109.5
C14 C19 H19B 109.5
H19A C19 H19B 109.5
C14 C19 H19C 109.5
H19A C19 H19C 109.5
H19B C19 H19C 109.5
C16 C20 H20A 109.5
C16 C20 H20B 109.5
H20A C20 H20B 109.5
C16 C20 H20C 109.5
H20A C20 H20C 109.5
H20B C20 H20C 109.5
C18 C21 H21A 109.5
C18 C21 H21B 109.5
H21A C21 H21B 109.5
C18 C21 H21C 109.5
H21A C21 H21C 109.5
H21B C21 H21C 109.5
C23 C22 Ru1 120.82(18)
C23 C22 H22 119.6
Ru1 C22 H22 119.6
C28 C23 C24 117.6(2)
C28 C23 C22 118.3(2)
C24 C23 C22 124.0(2)
C25 C24 C23 120.1(2)
C25 C24 H24 120.0
C23 C24 H24 120.0
C24 C25 C26 120.9(2)
C24 C25 H25 119.6
C26 C25 H25 119.6
C25 C26 C27 120.0(2)
C25 C26 H26 120.0
C27 C26 H26 120.0
C28 C27 C26 118.6(2)
C28 C27 H27 120.7
C26 C27 H27 120.7
C27 C28 C23 122.7(2)
C27 C28 S1 124.77(19)
C23 C28 S1 112.47(18)
C31 C29 C32 110.6(2)
C31 C29 C30 110.9(2)
C32 C29 C30 111.8(2)
C31 C29 S1 108.74(18)
C32 C29 S1 111.03(17)
C30 C29 S1 103.53(17)
C29 C30 H30A 109.5
C29 C30 H30B 109.5
H30A C30 H30B 109.5
C29 C30 H30C 109.5
H30A C30 H30C 109.5
H30B C30 H30C 109.5
C29 C31 H31A 109.5
C29 C31 H31B 109.5
H31A C31 H31B 109.5
C29 C31 H31C 109.5
H31A C31 H31C 109.5
H31B C31 H31C 109.5
C29 C32 H32A 109.5
C29 C32 H32B 109.5
H32A C32 H32B 109.5
C29 C32 H32C 109.5
H32A C32 H32C 109.5
H32B C32 H32C 109.5
Ru1 O2 H1O 121(2)
Ru1 O2 H2O 122(2)
H1O O2 H2O 105(3)
loop_
_geom_bond_atom_site_label_1
_geom_bond_atom_site_label_2
_geom_bond_distance
Ru1 C22 1.850(2)
Ru1 C1 2.088(3)
Ru1 O2 2.3037(18)
Ru1 Cl2 2.3768(7)
Ru1 S1 2.3775(6)
Ru1 Cl1 2.3883(7)
S1 O1 1.4801(18)
S1 C28 1.781(2)
S1 C29 1.864(3)
N1 C1 1.374(3)
N1 C2 1.381(3)
N1 C4 1.449(3)
N2 C1 1.369(3)
N2 C3 1.381(3)
N2 C13 1.439(3)
C2 C3 1.338(4)
C2 H2 0.9300
C3 H3 0.9300
C4 C5 1.388(4)
C4 C9 1.388(4)
C5 C6 1.390(3)
C5 C10 1.507(4)
C6 C7 1.387(4)
C6 H6 0.9300
C7 C8 1.386(4)
C7 C11 1.507(4)
C8 C9 1.393(4)
C8 H8 0.9300
C9 C12 1.501(4)
C10 H10A 0.9600
C10 H10B 0.9600
C10 H10C 0.9600
C11 H11A 0.9600
C11 H11B 0.9600
C11 H11C 0.9600
C12 H12A 0.9600
C12 H12B 0.9600
C12 H12C 0.9600
C13 C14 1.391(4)
C13 C18 1.395(4)
C14 C15 1.386(4)
C14 C19 1.505(4)
C15 C16 1.391(4)
C15 H15 0.9300
C16 C17 1.386(4)
C16 C20 1.506(3)
C17 C18 1.391(3)
C17 H17 0.9300
C18 C21 1.505(4)
C19 H19A 0.9600
C19 H19B 0.9600
C19 H19C 0.9600
C20 H20A 0.9600
C20 H20B 0.9600
C20 H20C 0.9600
C21 H21A 0.9600
C21 H21B 0.9600
C21 H21C 0.9600
C22 C23 1.461(3)
C22 H22 0.9300
C23 C28 1.396(3)
C23 C24 1.396(3)
C24 C25 1.384(4)
C24 H24 0.9300
C25 C26 1.385(4)
C25 H25 0.9300
C26 C27 1.389(3)
C26 H26 0.9300
C27 C28 1.375(4)
C27 H27 0.9300
C29 C31 1.523(4)
C29 C32 1.523(3)
C29 C30 1.525(3)
C30 H30A 0.9600
C30 H30B 0.9600
C30 H30C 0.9600
C31 H31A 0.9600
C31 H31B 0.9600
C31 H31C 0.9600
C32 H32A 0.9600
C32 H32B 0.9600
C32 H32C 0.9600
O2 H1O 0.75(3)
O2 H2O 0.80(3)
loop_
_geom_hbond_atom_site_label_D
_geom_hbond_atom_site_label_H
_geom_hbond_atom_site_label_A
_geom_hbond_distance_DH
_geom_hbond_distance_HA
_geom_hbond_distance_DA
_geom_hbond_angle_DHA
_geom_hbond_site_symmetry_A
O2 H2O O1 0.80(3) 2.00(3) 2.782(3) 164(3) 3_655
loop_
_geom_torsion_atom_site_label_1
_geom_torsion_atom_site_label_2
_geom_torsion_atom_site_label_3
_geom_torsion_atom_site_label_4
_geom_torsion
C22 Ru1 S1 O1 -143.47(12)
O2 Ru1 S1 O1 42.79(11)
Cl2 Ru1 S1 O1 -43.38(9)
Cl1 Ru1 S1 O1 124.87(9)
C22 Ru1 S1 C28 -25.22(11)
O2 Ru1 S1 C28 161.04(10)
Cl2 Ru1 S1 C28 74.87(8)
Cl1 Ru1 S1 C28 -116.87(8)
C22 Ru1 S1 C29 82.38(12)
O2 Ru1 S1 C29 -91.36(10)
Cl2 Ru1 S1 C29 -177.53(9)
Cl1 Ru1 S1 C29 -9.27(9)
C3 N2 C1 N1 0.6(3)
C13 N2 C1 N1 179.2(2)
C3 N2 C1 Ru1 -177.79(19)
C13 N2 C1 Ru1 0.8(4)
C2 N1 C1 N2 -0.1(3)
C4 N1 C1 N2 170.0(2)
C2 N1 C1 Ru1 178.20(19)
C4 N1 C1 Ru1 -11.7(4)
C22 Ru1 C1 N2 -166.9(2)
O2 Ru1 C1 N2 8.4(2)
Cl2 Ru1 C1 N2 94.0(2)
Cl1 Ru1 C1 N2 -74.1(2)
C22 Ru1 C1 N1 15.1(2)
O2 Ru1 C1 N1 -169.5(2)
Cl2 Ru1 C1 N1 -83.9(2)
Cl1 Ru1 C1 N1 107.9(2)
C1 N1 C2 C3 -0.4(3)
C4 N1 C2 C3 -171.8(2)
N1 C2 C3 N2 0.7(3)
C1 N2 C3 C2 -0.8(3)
C13 N2 C3 C2 -179.6(2)
C1 N1 C4 C5 93.6(3)
C2 N1 C4 C5 -96.7(3)
C1 N1 C4 C9 -90.8(3)
C2 N1 C4 C9 78.9(3)
C9 C4 C5 C6 2.1(4)
N1 C4 C5 C6 177.4(2)
C9 C4 C5 C10 -178.4(2)
N1 C4 C5 C10 -3.0(4)
C4 C5 C6 C7 0.2(4)
C10 C5 C6 C7 -179.4(2)
C5 C6 C7 C8 -1.8(4)
C5 C6 C7 C11 177.7(2)
C6 C7 C8 C9 1.3(4)
C11 C7 C8 C9 -178.2(2)
C5 C4 C9 C8 -2.5(4)
N1 C4 C9 C8 -178.0(2)
C5 C4 C9 C12 -179.8(2)
N1 C4 C9 C12 4.8(4)
C7 C8 C9 C4 0.8(4)
C7 C8 C9 C12 178.0(2)
C1 N2 C13 C14 97.4(3)
C3 N2 C13 C14 -84.1(3)
C1 N2 C13 C18 -88.9(3)
C3 N2 C13 C18 89.6(3)
C18 C13 C14 C15 7.8(4)
N2 C13 C14 C15 -178.8(2)
C18 C13 C14 C19 -169.7(3)
N2 C13 C14 C19 3.7(4)
C13 C14 C15 C16 -3.8(4)
C19 C14 C15 C16 173.8(2)
C14 C15 C16 C17 -1.8(4)
C14 C15 C16 C20 177.8(2)
C15 C16 C17 C18 3.7(4)
C20 C16 C17 C18 -175.9(2)
C16 C17 C18 C13 0.0(4)
C16 C17 C18 C21 179.6(2)
C14 C13 C18 C17 -6.0(4)
N2 C13 C18 C17 -179.4(2)
C14 C13 C18 C21 174.5(3)
N2 C13 C18 C21 1.0(4)
C1 Ru1 C22 C23 -145.8(2)
O2 Ru1 C22 C23 50.0(4)
Cl2 Ru1 C22 C23 -53.1(2)
S1 Ru1 C22 C23 28.27(19)
Cl1 Ru1 C22 C23 128.21(19)
Ru1 C22 C23 C28 -21.0(3)
Ru1 C22 C23 C24 154.6(2)
C28 C23 C24 C25 3.6(4)
C22 C23 C24 C25 -172.1(2)
C23 C24 C25 C26 -1.1(4)
C24 C25 C26 C27 -1.2(4)
C25 C26 C27 C28 0.9(4)
C26 C27 C28 C23 1.8(4)
C26 C27 C28 S1 -179.7(2)
C24 C23 C28 C27 -4.0(4)
C22 C23 C28 C27 171.9(2)
C24 C23 C28 S1 177.32(19)
C22 C23 C28 S1 -6.8(3)
O1 S1 C28 C27 -27.9(3)
C29 S1 C28 C27 82.5(2)
Ru1 S1 C28 C27 -156.3(2)
O1 S1 C28 C23 150.76(18)
C29 S1 C28 C23 -98.8(2)
Ru1 S1 C28 C23 22.39(19)
O1 S1 C29 C31 46.89(18)
C28 S1 C29 C31 -67.05(18)
Ru1 S1 C29 C31 -171.64(13)
O1 S1 C29 C32 168.85(17)
C28 S1 C29 C32 54.9(2)
Ru1 S1 C29 C32 -49.7(2)
O1 S1 C29 C30 -71.07(18)
C28 S1 C29 C30 174.99(17)
Ru1 S1 C29 C30 70.40(17)
#------------------------------------------------------------------------------
#$Date: 2016-03-21 07:44:06 +0200 (Mon, 21 Mar 2016) $
#$Revision: 178579 $
#$URL: svn://www.crystallography.net/cod/cif/4/06/89/4068965.cif $
#------------------------------------------------------------------------------
#
# This file is available in the Crystallography Open Database (COD),
# http://www.crystallography.net/
#
# All data on this site have been placed in the public domain by the
# contributors.
#
data_4068965
loop_
_publ_author_name
'Szadkowska, Anna'
'Makal, Anna'
'Wo\'zniak, Krzysztof'
'Kadyrov, Renat'
'Grela, Karol'
_publ_section_title
;
 Ruthenium Olefin Metathesis Initiators Bearing Chelating Sulfoxide
 Ligands
;
_journal_issue                   9
_journal_name_full               Organometallics
_journal_page_first              2693
_journal_paper_doi               10.1021/om801183g
_journal_volume                  28
_journal_year                    2009
_chemical_formula_sum            'C57 H62 Cl5 Cu N4 O Ru S'
_chemical_formula_weight         1193.03
_chemical_name_systematic
;
 ?
;
_space_group_IT_number           2
_symmetry_cell_setting           triclinic
_symmetry_space_group_name_Hall  '-P 1'
_symmetry_space_group_name_H-M   'P -1'
_atom_sites_solution_hydrogens   geom
_atom_sites_solution_primary     direct
_atom_sites_solution_secondary   difmap
_audit_creation_method           SHELXL-97
_cell_angle_alpha                99.461(7)
_cell_angle_beta                 96.358(7)
_cell_angle_gamma                91.281(6)
_cell_formula_units_Z            2
_cell_length_a                   12.7041(14)
_cell_length_b                   13.6104(17)
_cell_length_c                   16.3689(19)
_cell_measurement_reflns_used    331
_cell_measurement_temperature    100(2)
_cell_measurement_theta_max      27.53
_cell_measurement_theta_min      1.27
_cell_volume                     2772.3(6)
_computing_cell_refinement       'Bruker SMART'
_computing_data_collection       'Bruker SMART'
_computing_data_reduction        'Bruker SAINT'
_computing_structure_refinement  'SHELXL-97 (Sheldrick, 1997)'
_computing_structure_solution    'SHELXL-97 (Sheldrick, 1997)'
_diffrn_ambient_temperature      100(2)
_diffrn_measured_fraction_theta_full 0.963
_diffrn_measured_fraction_theta_max 0.963
_diffrn_measurement_device_type  'CCD area detector'
_diffrn_measurement_method       'omega scans'
_diffrn_radiation_monochromator  'multi-layer optics'
_diffrn_radiation_source         'TXS rotating anode'
_diffrn_radiation_type           MoK\a
_diffrn_radiation_wavelength     0.71073
_diffrn_reflns_av_R_equivalents  0.1239
_diffrn_reflns_av_sigmaI/netI    0.1060
_diffrn_reflns_limit_h_max       16
_diffrn_reflns_limit_h_min       -16
_diffrn_reflns_limit_k_max       17
_diffrn_reflns_limit_k_min       -17
_diffrn_reflns_limit_l_max       21
_diffrn_reflns_limit_l_min       -21
_diffrn_reflns_number            61467
_diffrn_reflns_theta_full        27.53
_diffrn_reflns_theta_max         27.53
_diffrn_reflns_theta_min         1.27
_exptl_absorpt_coefficient_mu    0.977
_exptl_absorpt_correction_T_max  0.790
_exptl_absorpt_correction_T_min  0.667
_exptl_absorpt_correction_type   numerical
_exptl_absorpt_process_details
'Sheldrick, G. M. (1996). SADABS. University of G&#x00F6;ttingen, Germany.'
_exptl_crystal_colour            green
_exptl_crystal_density_diffrn    1.429
_exptl_crystal_density_method    'not measured'
_exptl_crystal_description       planar
_exptl_crystal_F_000             1228
_exptl_crystal_size_max          0.24
_exptl_crystal_size_mid          0.22
_exptl_crystal_size_min          0.09
_refine_diff_density_max         1.693
_refine_diff_density_min         -1.403
_refine_diff_density_rms         0.167
_refine_ls_extinction_method     none
_refine_ls_goodness_of_fit_ref   1.095
_refine_ls_hydrogen_treatment    constr
_refine_ls_matrix_type           full
_refine_ls_number_parameters     665
_refine_ls_number_reflns         12311
_refine_ls_number_restraints     18
_refine_ls_restrained_S_all      1.095
_refine_ls_R_factor_all          0.1348
_refine_ls_R_factor_gt           0.0734
_refine_ls_shift/su_max          0.001
_refine_ls_shift/su_mean         0.000
_refine_ls_structure_factor_coef Fsqd
_refine_ls_weighting_details
'calc w=1/[\s^2^(Fo^2^)+(0.0891P)^2^+17.5627P] where P=(Fo^2^+2Fc^2^)/3'
_refine_ls_weighting_scheme      calc
_refine_ls_wR_factor_gt          0.1892
_refine_ls_wR_factor_ref         0.2272
_reflns_number_gt                7665
_reflns_number_total             12311
_reflns_threshold_expression     >2sigma(I)
_cod_data_source_file            om801183g_si_003.cif
_cod_data_source_block           c039901_22092008_0m
_cod_original_sg_symbol_H-M      P-1
_cod_database_code               4068965
loop_
_symmetry_equiv_pos_as_xyz
'x, y, z'
'-x, -y, -z'
loop_
_atom_site_label
_atom_site_type_symbol
_atom_site_fract_x
_atom_site_fract_y
_atom_site_fract_z
_atom_site_U_iso_or_equiv
_atom_site_adp_type
_atom_site_occupancy
_atom_site_symmetry_multiplicity
_atom_site_calc_flag
_atom_site_refinement_flags
_atom_site_disorder_assembly
_atom_site_disorder_group
Ru1 Ru 0.84246(4) 0.97249(5) 0.75797(3) 0.01924(16) Uani 1 1 d . A 2
Cl1 Cl 0.68703(12) 0.98343(15) 0.82160(10) 0.0240(4) Uani 1 1 d . A 2
Cl2 Cl 0.95321(13) 0.92351(15) 0.65574(10) 0.0271(4) Uani 1 1 d . A 2
S1 S 0.89879(12) 0.83953(14) 0.82529(10) 0.0194(4) Uani 1 1 d . A 2
O1 O 0.8351(4) 0.7967(4) 0.8824(3) 0.0235(11) Uani 1 1 d . A 2
N1 N 0.8207(4) 1.1865(5) 0.7058(3) 0.0207(13) Uani 1 1 d . A 2
N2 N 0.7300(4) 1.0726(5) 0.6197(3) 0.0214(13) Uani 1 1 d . A 2
C1 C 0.7954(5) 1.0883(6) 0.6938(4) 0.0189(15) Uani 1 1 d . A 2
C2 C 0.7719(6) 1.2326(7) 0.6421(4) 0.0280(17) Uani 1 1 d . A 2
H2 H 0.7774 1.3012 0.6376 0.034 Uiso 1 1 calc R A 2
C3 C 0.7159(6) 1.1605(6) 0.5888(4) 0.0266(17) Uani 1 1 d . A 2
H3 H 0.6738 1.1682 0.5387 0.032 Uiso 1 1 calc R A 2
C4 C 0.8871(5) 1.2430(6) 0.7755(4) 0.0233(15) Uani 1 1 d . A 2
C5 C 0.9951(5) 1.2516(6) 0.7717(4) 0.0235(15) Uani 1 1 d . A 2
C6 C 1.0576(6) 1.3017(6) 0.8426(5) 0.0283(17) Uani 1 1 d . A 2
H6 H 1.1318 1.3098 0.8412 0.034 Uiso 1 1 calc R A 2
C7 C 1.0145(6) 1.3398(6) 0.9146(4) 0.0257(16) Uani 1 1 d . A 2
C8 C 0.9057(6) 1.3301(6) 0.9142(4) 0.0277(17) Uani 1 1 d . A 2
H8 H 0.8753 1.3569 0.9632 0.033 Uiso 1 1 calc R A 2
C9 C 0.8398(6) 1.2832(6) 0.8460(4) 0.0246(16) Uani 1 1 d . A 2
C10 C 1.0447(6) 1.2055(7) 0.6958(4) 0.0287(17) Uani 1 1 d . A 2
H10A H 1.0295 1.1334 0.6850 0.043 Uiso 1 1 calc R A 2
H10B H 1.1216 1.2190 0.7055 0.043 Uiso 1 1 calc R A 2
H10C H 1.0153 1.2343 0.6475 0.043 Uiso 1 1 calc R A 2
C11 C 1.0851(7) 1.3871(7) 0.9924(5) 0.0337(19) Uani 1 1 d . A 2
H11A H 1.1167 1.3347 1.0205 0.050 Uiso 1 1 calc R A 2
H11B H 1.0428 1.4287 1.0300 0.050 Uiso 1 1 calc R A 2
H11C H 1.1414 1.4284 0.9770 0.050 Uiso 1 1 calc R A 2
C12 C 0.7219(6) 1.2679(7) 0.8496(5) 0.0296(17) Uani 1 1 d . A 2
H12A H 0.7035 1.1963 0.8410 0.044 Uiso 1 1 calc R A 2
H12B H 0.6822 1.2979 0.8059 0.044 Uiso 1 1 calc R A 2
H12C H 0.7039 1.2994 0.9043 0.044 Uiso 1 1 calc R A 2
C13 C 0.6781(5) 0.9797(6) 0.5785(4) 0.0209(15) Uani 1 1 d . A 2
C14 C 0.5785(5) 0.9525(6) 0.6005(4) 0.0254(16) Uani 1 1 d . A 2
C15 C 0.5315(6) 0.8615(6) 0.5596(4) 0.0279(17) Uani 1 1 d . A 2
H15 H 0.4657 0.8402 0.5748 0.033 Uiso 1 1 calc R A 2
C16 C 0.5768(6) 0.8015(6) 0.4982(4) 0.0270(17) Uani 1 1 d . A 2
C17 C 0.6708(6) 0.8332(6) 0.4757(4) 0.0281(17) Uani 1 1 d . A 2
H17 H 0.7014 0.7921 0.4326 0.034 Uiso 1 1 calc R A 2
C18 C 0.7241(6) 0.9230(6) 0.5133(4) 0.0255(16) Uani 1 1 d . A 2
C19 C 0.5192(6) 1.0233(7) 0.6586(5) 0.0309(18) Uani 1 1 d . A 2
H19A H 0.4737 1.0636 0.6261 0.046 Uiso 1 1 calc R A 2
H19B H 0.5701 1.0672 0.6984 0.046 Uiso 1 1 calc R A 2
H19C H 0.4755 0.9850 0.6889 0.046 Uiso 1 1 calc R A 2
C20 C 0.5224(7) 0.7049(7) 0.4541(5) 0.038(2) Uani 1 1 d . A 2
H20A H 0.4742 0.6808 0.4899 0.057 Uiso 1 1 calc R A 2
H20B H 0.5756 0.6553 0.4417 0.057 Uiso 1 1 calc R A 2
H20C H 0.4820 0.7157 0.4020 0.057 Uiso 1 1 calc R A 2
C21 C 0.8202(6) 0.9597(7) 0.4795(5) 0.0339(19) Uani 1 1 d . A 2
H21A H 0.8621 0.9028 0.4597 0.051 Uiso 1 1 calc R A 2
H21B H 0.8634 1.0054 0.5237 0.051 Uiso 1 1 calc R A 2
H21C H 0.7978 0.9946 0.4331 0.051 Uiso 1 1 calc R A 2
C22 C 0.9416(5) 1.0423(6) 0.8378(4) 0.0192(14) Uani 1 1 d . A 2
H22 H 0.9389 1.1129 0.8484 0.023 Uiso 1 1 calc R A 2
C23 C 1.0239(5) 0.9964(6) 0.8858(4) 0.0201(15) Uani 1 1 d . A 2
C24 C 1.1081(5) 1.0531(6) 0.9357(4) 0.0235(16) Uani 1 1 d . A 2
H24 H 1.1141 1.1232 0.9383 0.028 Uiso 1 1 calc R A 2
C25 C 1.1827(5) 1.0039(6) 0.9814(4) 0.0232(16) Uani 1 1 d . A 2
H25 H 1.2413 1.0410 1.0142 0.028 Uiso 1 1 calc R A 2
C26 C 1.1732(5) 0.9028(6) 0.9800(4) 0.0259(17) Uani 1 1 d . A 2
H26 H 1.2243 0.8717 1.0130 0.031 Uiso 1 1 calc R A 2
C27 C 1.0895(5) 0.8445(6) 0.9307(4) 0.0233(15) Uani 1 1 d . A 2
H27 H 1.0823 0.7745 0.9291 0.028 Uiso 1 1 calc R A 2
C28 C 1.0175(5) 0.8956(5) 0.8840(4) 0.0171(14) Uani 1 1 d . A 2
C29 C 0.9493(6) 0.7340(6) 0.7612(5) 0.0284(17) Uani 1 1 d . A 2
H29A H 0.9861 0.7572 0.7172 0.034 Uiso 1 1 calc R A 2
H29B H 1.0010 0.7004 0.7959 0.034 Uiso 1 1 calc R A 2
C30 C 0.8594(6) 0.6617(6) 0.7218(4) 0.0247(16) Uani 1 1 d . A 2
C31 C 0.8349(7) 0.5820(7) 0.7586(5) 0.040(2) Uani 1 1 d . A 2
H31 H 0.8732 0.5744 0.8103 0.048 Uiso 1 1 calc R A 2
C32 C 0.7543(8) 0.5115(7) 0.7215(5) 0.044(2) Uani 1 1 d . A 2
H32 H 0.7385 0.4561 0.7472 0.053 Uiso 1 1 calc R A 2
C33 C 0.6984(6) 0.5238(7) 0.6471(5) 0.037(2) Uani 1 1 d . A 2
H33 H 0.6441 0.4765 0.6205 0.044 Uiso 1 1 calc R A 2
C34 C 0.7221(7) 0.6058(7) 0.6114(6) 0.040(2) Uani 1 1 d . A 2
H34 H 0.6826 0.6148 0.5605 0.049 Uiso 1 1 calc R A 2
C35 C 0.8012(6) 0.6742(7) 0.6478(5) 0.0327(19) Uani 1 1 d . A 2
H35 H 0.8162 0.7300 0.6223 0.039 Uiso 1 1 calc R A 2
Cu1 Cu 0.29754(6) 0.64395(8) 0.85914(5) 0.0242(2) Uani 1 1 d . B 2
Cl3 Cl 0.15084(13) 0.57636(15) 0.86806(11) 0.0274(4) Uani 1 1 d . B 2
N41 N 0.4417(4) 0.7266(5) 0.7648(4) 0.0257(14) Uani 1 1 d . B 2
N42 N 0.5244(4) 0.7112(5) 0.8823(4) 0.0249(14) Uani 1 1 d . B 2
C41 C 0.4257(5) 0.6979(6) 0.8371(4) 0.0215(15) Uani 1 1 d . B 2
C42 C 0.5464(6) 0.7591(7) 0.7641(5) 0.0321(19) Uani 1 1 d . B 2
H42 H 0.5754 0.7838 0.7201 0.038 Uiso 1 1 calc R B 2
C43 C 0.5976(5) 0.7486(7) 0.8373(5) 0.0289(18) Uani 1 1 d . B 2
H43 H 0.6707 0.7640 0.8554 0.035 Uiso 1 1 calc R B 2
C44 C 0.3555(5) 0.7334(6) 0.7008(4) 0.0230(16) Uani 1 1 d . B 2
C45 C 0.3380(5) 0.6558(6) 0.6338(5) 0.0277(17) Uani 1 1 d . B 2
C46 C 0.2501(6) 0.6613(7) 0.5751(4) 0.0279(17) Uani 1 1 d . B 2
H46 H 0.2363 0.6099 0.5280 0.033 Uiso 1 1 calc R B 2
C47 C 0.1830(5) 0.7401(7) 0.5842(4) 0.0279(17) Uani 1 1 d . B 2
C48 C 0.2059(6) 0.8177(7) 0.6499(4) 0.0286(17) Uani 1 1 d . B 2
H48 H 0.1625 0.8739 0.6538 0.034 Uiso 1 1 calc R B 2
C49 C 0.2914(5) 0.8156(6) 0.7108(4) 0.0252(16) Uani 1 1 d . B 2
C50 C 0.4087(6) 0.5695(7) 0.6249(5) 0.037(2) Uani 1 1 d . B 2
H50A H 0.3839 0.5231 0.5736 0.056 Uiso 1 1 calc R B 2
H50B H 0.4071 0.5352 0.6729 0.056 Uiso 1 1 calc R B 2
H50C H 0.4813 0.5934 0.6222 0.056 Uiso 1 1 calc R B 2
C51 C 0.0845(6) 0.7417(7) 0.5229(5) 0.036(2) Uani 1 1 d . B 2
H51A H 0.0466 0.8026 0.5391 0.054 Uiso 1 1 calc R B 2
H51B H 0.0381 0.6833 0.5232 0.054 Uiso 1 1 calc R B 2
H51C H 0.1051 0.7404 0.4668 0.054 Uiso 1 1 calc R B 2
C52 C 0.3119(6) 0.8993(7) 0.7838(5) 0.035(2) Uani 1 1 d . B 2
H52A H 0.2581 0.9492 0.7792 0.052 Uiso 1 1 calc R B 2
H52B H 0.3823 0.9303 0.7840 0.052 Uiso 1 1 calc R B 2
H52C H 0.3088 0.8729 0.8357 0.052 Uiso 1 1 calc R B 2
C53 C 0.5466(5) 0.6974(6) 0.9681(4) 0.0245(16) Uani 1 1 d . B 2
C54 C 0.5955(6) 0.6118(7) 0.9849(5) 0.0309(18) Uani 1 1 d . B 2
C55 C 0.6192(7) 0.6024(8) 1.0692(5) 0.042(2) Uani 1 1 d . B 2
H55 H 0.6515 0.5440 1.0828 0.051 Uiso 1 1 calc R B 2
C56 C 0.5965(6) 0.6766(8) 1.1327(5) 0.038(2) Uani 1 1 d . B 2
C57 C 0.5499(6) 0.7609(8) 1.1120(5) 0.038(2) Uani 1 1 d . B 2
H57 H 0.5339 0.8116 1.1556 0.046 Uiso 1 1 calc R B 2
C58 C 0.5255(6) 0.7748(7) 1.0300(5) 0.0301(18) Uani 1 1 d . B 2
C59 C 0.6238(8) 0.5302(8) 0.9168(5) 0.044(2) Uani 1 1 d . B 2
H59A H 0.6581 0.4769 0.9422 0.066 Uiso 1 1 calc R B 2
H59B H 0.6724 0.5579 0.8832 0.066 Uiso 1 1 calc R B 2
H59C H 0.5592 0.5031 0.8812 0.066 Uiso 1 1 calc R B 2
C60 C 0.6212(9) 0.6630(10) 1.2229(5) 0.059(3) Uani 1 1 d . B 2
H60A H 0.6540 0.5988 1.2250 0.089 Uiso 1 1 calc R B 2
H60B H 0.5555 0.6643 1.2492 0.089 Uiso 1 1 calc R B 2
H60C H 0.6702 0.7170 1.2528 0.089 Uiso 1 1 calc R B 2
C61 C 0.4797(7) 0.8683(7) 1.0091(6) 0.040(2) Uani 1 1 d . B 2
H61A H 0.4680 0.8637 0.9484 0.060 Uiso 1 1 calc R B 2
H61B H 0.5289 0.9248 1.0329 0.060 Uiso 1 1 calc R B 2
H61C H 0.4121 0.8780 1.0322 0.060 Uiso 1 1 calc R B 2
C81 C 0.8616(12) 0.5389(15) 0.3319(10) 0.033(4) Uani 0.493(19) 1 d PDU C 1
H81A H 0.8139 0.4788 0.3153 0.039 Uiso 0.493(19) 1 calc PR C 1
H81B H 0.8596 0.5748 0.2839 0.039 Uiso 0.493(19) 1 calc PR C 1
Cl4 Cl 0.8166(8) 0.6153(10) 0.4155(6) 0.0341(19) Uani 0.493(19) 1 d PD C 1
Cl5 Cl 0.9886(5) 0.5037(10) 0.3566(9) 0.099(5) Uani 0.493(19) 1 d PD C 1
C81B C 0.9080(19) 0.5269(19) 0.3445(13) 0.063(7) Uani 0.507(19) 1 d PDU C 2
H81C H 0.9460 0.5632 0.3082 0.076 Uiso 0.507(19) 1 calc PR C 2
H81D H 0.8676 0.4695 0.3089 0.076 Uiso 0.507(19) 1 calc PR C 2
Cl4B Cl 0.8213(12) 0.6056(14) 0.3951(12) 0.091(5) Uani 0.507(19) 1 d PD C 2
Cl5B Cl 0.9989(5) 0.4843(5) 0.4165(10) 0.077(4) Uani 0.507(19) 1 d PD C 2
loop_
_atom_site_aniso_label
_atom_site_aniso_U_11
_atom_site_aniso_U_22
_atom_site_aniso_U_33
_atom_site_aniso_U_23
_atom_site_aniso_U_13
_atom_site_aniso_U_12
Ru1 0.0153(3) 0.0246(4) 0.0163(3) 0.0031(2) -0.00507(18) 0.0046(2)
Cl1 0.0173(7) 0.0324(11) 0.0221(8) 0.0065(7) -0.0030(6) 0.0056(7)
Cl2 0.0256(8) 0.0334(11) 0.0228(8) 0.0054(7) 0.0024(6) 0.0103(7)
S1 0.0145(7) 0.0241(10) 0.0178(7) 0.0024(7) -0.0043(6) 0.0037(6)
O1 0.019(2) 0.028(3) 0.022(2) 0.005(2) -0.0038(18) 0.003(2)
N1 0.021(3) 0.024(4) 0.016(3) 0.004(2) -0.005(2) 0.007(2)
N2 0.022(3) 0.022(4) 0.018(3) 0.002(2) -0.008(2) 0.004(2)
C1 0.012(3) 0.032(5) 0.013(3) 0.005(3) -0.003(2) 0.006(3)
C2 0.029(4) 0.032(5) 0.024(3) 0.011(3) -0.004(3) 0.008(3)
C3 0.024(3) 0.029(5) 0.024(3) 0.006(3) -0.009(3) 0.005(3)
C4 0.027(3) 0.023(4) 0.019(3) 0.006(3) -0.007(3) 0.005(3)
C5 0.024(3) 0.027(4) 0.019(3) 0.004(3) -0.001(3) 0.003(3)
C6 0.025(4) 0.032(5) 0.028(4) 0.013(3) -0.007(3) 0.001(3)
C7 0.038(4) 0.018(4) 0.020(3) 0.005(3) -0.008(3) 0.000(3)
C8 0.038(4) 0.027(5) 0.019(3) 0.007(3) 0.002(3) 0.009(3)
C9 0.027(4) 0.024(4) 0.023(3) 0.010(3) -0.003(3) 0.010(3)
C10 0.023(4) 0.038(5) 0.025(4) 0.007(3) 0.003(3) 0.002(3)
C11 0.040(4) 0.037(5) 0.021(4) 0.005(3) -0.009(3) -0.003(4)
C12 0.026(4) 0.031(5) 0.032(4) 0.006(3) 0.001(3) 0.008(3)
C13 0.022(3) 0.021(4) 0.017(3) 0.001(3) -0.006(2) 0.004(3)
C14 0.021(3) 0.033(5) 0.022(3) 0.011(3) -0.008(3) 0.004(3)
C15 0.022(3) 0.033(5) 0.028(4) 0.011(3) -0.011(3) 0.001(3)
C16 0.028(4) 0.027(5) 0.024(3) 0.009(3) -0.011(3) 0.008(3)
C17 0.037(4) 0.026(5) 0.018(3) -0.001(3) -0.008(3) 0.013(3)
C18 0.026(4) 0.029(5) 0.020(3) 0.005(3) -0.006(3) 0.007(3)
C19 0.021(3) 0.044(6) 0.027(4) 0.007(4) -0.003(3) 0.006(3)
C20 0.038(5) 0.032(5) 0.041(5) 0.005(4) -0.012(4) 0.002(4)
C21 0.036(4) 0.040(6) 0.025(4) 0.004(4) 0.001(3) 0.013(4)
C22 0.020(3) 0.017(4) 0.019(3) 0.004(3) -0.004(2) 0.001(3)
C23 0.018(3) 0.027(4) 0.015(3) 0.004(3) -0.001(2) 0.005(3)
C24 0.020(3) 0.028(5) 0.022(3) 0.006(3) -0.003(3) 0.002(3)
C25 0.015(3) 0.034(5) 0.019(3) 0.001(3) 0.000(2) 0.001(3)
C26 0.017(3) 0.040(5) 0.020(3) 0.009(3) -0.005(3) 0.002(3)
C27 0.019(3) 0.023(4) 0.028(3) 0.006(3) -0.003(3) 0.009(3)
C28 0.014(3) 0.017(4) 0.018(3) 0.002(3) -0.005(2) 0.003(3)
C29 0.022(3) 0.033(5) 0.030(4) 0.010(3) -0.005(3) 0.009(3)
C30 0.026(4) 0.029(5) 0.020(3) 0.006(3) 0.001(3) 0.004(3)
C31 0.058(6) 0.035(6) 0.027(4) 0.010(4) -0.004(4) -0.005(4)
C32 0.066(6) 0.031(6) 0.034(4) -0.002(4) 0.009(4) -0.005(4)
C33 0.028(4) 0.029(5) 0.046(5) -0.010(4) 0.000(3) -0.002(3)
C34 0.035(4) 0.035(5) 0.044(5) -0.001(4) -0.019(4) 0.003(4)
C35 0.031(4) 0.032(5) 0.032(4) 0.009(4) -0.011(3) 0.001(3)
Cu1 0.0173(4) 0.0313(6) 0.0237(4) 0.0068(4) -0.0020(3) 0.0028(4)
Cl3 0.0213(8) 0.0331(11) 0.0282(9) 0.0064(8) 0.0022(6) 0.0017(7)
N41 0.014(3) 0.037(4) 0.028(3) 0.013(3) -0.003(2) 0.002(3)
N42 0.017(3) 0.035(4) 0.023(3) 0.008(3) -0.004(2) 0.003(3)
C41 0.015(3) 0.031(5) 0.020(3) 0.010(3) 0.001(2) 0.010(3)
C42 0.019(3) 0.044(6) 0.034(4) 0.012(4) -0.001(3) 0.001(3)
C43 0.016(3) 0.042(5) 0.028(4) 0.007(3) -0.001(3) -0.003(3)
C44 0.016(3) 0.034(5) 0.020(3) 0.010(3) -0.001(2) 0.002(3)
C45 0.019(3) 0.035(5) 0.031(4) 0.012(3) 0.000(3) 0.001(3)
C46 0.023(3) 0.037(5) 0.023(3) 0.006(3) -0.001(3) 0.001(3)
C47 0.019(3) 0.045(5) 0.020(3) 0.010(3) -0.002(3) 0.003(3)
C48 0.024(4) 0.038(5) 0.027(4) 0.012(3) 0.003(3) 0.013(3)
C49 0.018(3) 0.038(5) 0.021(3) 0.013(3) 0.000(3) 0.000(3)
C50 0.030(4) 0.038(6) 0.041(5) 0.003(4) -0.005(3) 0.009(4)
C51 0.027(4) 0.052(6) 0.027(4) 0.004(4) -0.004(3) 0.005(4)
C52 0.029(4) 0.050(6) 0.027(4) 0.008(4) 0.004(3) 0.009(4)
C53 0.017(3) 0.036(5) 0.022(3) 0.011(3) -0.002(3) -0.001(3)
C54 0.026(4) 0.036(5) 0.032(4) 0.008(4) -0.001(3) 0.009(3)
C55 0.041(5) 0.044(6) 0.041(5) 0.015(4) -0.008(4) 0.013(4)
C56 0.031(4) 0.058(7) 0.023(4) 0.009(4) -0.005(3) 0.005(4)
C57 0.028(4) 0.057(7) 0.025(4) -0.005(4) -0.002(3) -0.001(4)
C58 0.020(3) 0.038(5) 0.031(4) 0.004(4) -0.001(3) 0.006(3)
C59 0.053(5) 0.043(6) 0.037(5) 0.009(4) 0.005(4) 0.020(5)
C60 0.068(7) 0.085(9) 0.025(4) 0.018(5) -0.009(4) 0.008(6)
C61 0.041(5) 0.039(6) 0.040(5) 0.003(4) 0.002(4) 0.012(4)
C81 0.026(7) 0.036(8) 0.037(7) 0.002(6) 0.009(6) 0.017(6)
Cl4 0.023(3) 0.039(4) 0.037(3) -0.005(3) 0.0063(19) 0.002(2)
Cl5 0.053(4) 0.125(8) 0.091(8) -0.052(6) -0.018(4) 0.051(4)
C81B 0.061(11) 0.065(11) 0.062(10) 0.010(8) 0.001(8) 0.007(8)
Cl4B 0.063(6) 0.081(10) 0.137(13) 0.055(9) -0.011(7) 0.015(6)
Cl5B 0.044(3) 0.055(4) 0.132(11) 0.012(4) 0.013(4) 0.015(3)
loop_
_atom_type_symbol
_atom_type_description
_atom_type_scat_dispersion_real
_atom_type_scat_dispersion_imag
_atom_type_scat_source
C C 0.0033 0.0016 'International Tables Vol C Tables 4.2.6.8 and 6.1.1.4'
H H 0.0000 0.0000 'International Tables Vol C Tables 4.2.6.8 and 6.1.1.4'
N N 0.0061 0.0033 'International Tables Vol C Tables 4.2.6.8 and 6.1.1.4'
O O 0.0106 0.0060 'International Tables Vol C Tables 4.2.6.8 and 6.1.1.4'
S S 0.1246 0.1234 'International Tables Vol C Tables 4.2.6.8 and 6.1.1.4'
Cl Cl 0.1484 0.1585 'International Tables Vol C Tables 4.2.6.8 and 6.1.1.4'
Ru Ru -1.2594 0.8363 'International Tables Vol C Tables 4.2.6.8 and 6.1.1.4'
Cu Cu 0.3201 1.2651 'International Tables Vol C Tables 4.2.6.8 and 6.1.1.4'
loop_
_geom_angle_atom_site_label_1
_geom_angle_atom_site_label_2
_geom_angle_atom_site_label_3
_geom_angle
C22 Ru1 C1 99.0(3)
C22 Ru1 Cl2 98.4(2)
C1 Ru1 Cl2 87.89(19)
C22 Ru1 Cl1 103.5(2)
C1 Ru1 Cl1 90.15(18)
Cl2 Ru1 Cl1 158.01(7)
C22 Ru1 S1 81.8(2)
C1 Ru1 S1 177.63(19)
Cl2 Ru1 S1 89.78(7)
Cl1 Ru1 S1 91.84(6)
O1 S1 C28 108.3(3)
O1 S1 C29 105.6(4)
C28 S1 C29 101.4(3)
O1 S1 Ru1 122.8(2)
C28 S1 Ru1 99.5(2)
C29 S1 Ru1 116.6(3)
C1 N1 C2 112.1(6)
C1 N1 C4 126.8(6)
C2 N1 C4 121.1(7)
C1 N2 C3 110.9(6)
C1 N2 C13 126.7(6)
C3 N2 C13 122.3(5)
N1 C1 N2 103.5(6)
N1 C1 Ru1 133.6(4)
N2 C1 Ru1 122.8(5)
C3 C2 N1 105.9(7)
C2 C3 N2 107.6(6)
C5 C4 C9 122.6(6)
C5 C4 N1 119.1(6)
C9 C4 N1 118.2(6)
C4 C5 C6 117.4(7)
C4 C5 C10 121.7(6)
C6 C5 C10 120.8(6)
C7 C6 C5 121.9(7)
C6 C7 C8 118.1(6)
C6 C7 C11 120.7(7)
C8 C7 C11 121.2(7)
C9 C8 C7 122.7(7)
C8 C9 C4 117.2(7)
C8 C9 C12 121.3(7)
C4 C9 C12 121.2(7)
C18 C13 C14 121.9(7)
C18 C13 N2 118.9(6)
C14 C13 N2 119.0(6)
C15 C14 C13 117.1(7)
C15 C14 C19 120.8(7)
C13 C14 C19 121.8(7)
C16 C15 C14 122.4(7)
C17 C16 C15 118.6(7)
C17 C16 C20 120.5(7)
C15 C16 C20 120.9(7)
C16 C17 C18 123.1(7)
C17 C18 C13 116.6(7)
C17 C18 C21 120.8(7)
C13 C18 C21 122.4(7)
C23 C22 Ru1 124.1(6)
C28 C23 C24 119.2(6)
C28 C23 C22 119.0(6)
C24 C23 C22 121.8(7)
C25 C24 C23 118.4(7)
C26 C25 C24 121.3(7)
C25 C26 C27 121.4(6)
C28 C27 C26 115.9(7)
C23 C28 C27 123.8(6)
C23 C28 S1 112.1(5)
C27 C28 S1 123.7(6)
C30 C29 S1 109.9(5)
C31 C30 C35 119.2(7)
C31 C30 C29 120.1(7)
C35 C30 C29 120.7(7)
C30 C31 C32 121.2(8)
C33 C32 C31 118.9(9)
C32 C33 C34 119.5(8)
C35 C34 C33 121.3(8)
C34 C35 C30 119.8(8)
C41 Cu1 Cl3 172.9(2)
C41 N41 C42 112.1(6)
C41 N41 C44 122.1(6)
C42 N41 C44 125.4(6)
C41 N42 C43 110.9(6)
C41 N42 C53 124.5(6)
C43 N42 C53 124.3(6)
N41 C41 N42 103.4(6)
N41 C41 Cu1 124.4(5)
N42 C41 Cu1 132.0(5)
C43 C42 N41 106.5(7)
C42 C43 N42 107.1(6)
C45 C44 C49 123.1(6)
C45 C44 N41 118.1(7)
C49 C44 N41 118.8(7)
C44 C45 C46 117.1(7)
C44 C45 C50 121.6(6)
C46 C45 C50 121.3(7)
C47 C46 C45 121.4(7)
C48 C47 C46 119.5(6)
C48 C47 C51 119.8(7)
C46 C47 C51 120.7(7)
C47 C48 C49 121.4(7)
C48 C49 C44 117.4(7)
C48 C49 C52 120.3(7)
C44 C49 C52 122.3(6)
C54 C53 C58 123.1(7)
C54 C53 N42 118.7(7)
C58 C53 N42 118.0(7)
C53 C54 C55 117.2(8)
C53 C54 C59 122.8(7)
C55 C54 C59 120.0(8)
C56 C55 C54 121.4(8)
C57 C56 C55 118.7(7)
C57 C56 C60 121.5(9)
C55 C56 C60 119.9(9)
C56 C57 C58 122.7(8)
C57 C58 C53 117.0(8)
C57 C58 C61 121.8(8)
C53 C58 C61 121.3(7)
Cl5 C81 Cl4 111.5(11)
Cl4B C81B Cl5B 110.4(13)
loop_
_geom_bond_atom_site_label_1
_geom_bond_atom_site_label_2
_geom_bond_distance
Ru1 C22 1.835(6)
Ru1 C1 2.096(7)
Ru1 Cl2 2.3283(19)
Ru1 Cl1 2.3288(18)
Ru1 S1 2.3537(18)
S1 O1 1.481(5)
S1 C28 1.779(6)
S1 C29 1.808(8)
N1 C1 1.345(10)
N1 C2 1.398(8)
N1 C4 1.439(8)
N2 C1 1.375(7)
N2 C3 1.381(10)
N2 C13 1.439(9)
C2 C3 1.334(11)
C4 C5 1.383(10)
C4 C9 1.398(10)
C5 C6 1.398(10)
C5 C10 1.507(10)
C6 C7 1.383(11)
C7 C8 1.385(11)
C7 C11 1.514(9)
C8 C9 1.375(10)
C9 C12 1.516(10)
C13 C18 1.402(10)
C13 C14 1.411(10)
C14 C15 1.395(11)
C14 C19 1.513(11)
C15 C16 1.374(11)
C16 C17 1.370(11)
C16 C20 1.505(11)
C17 C18 1.398(11)
C18 C21 1.503(11)
C22 C23 1.453(9)
C23 C28 1.368(10)
C23 C24 1.403(9)
C24 C25 1.394(9)
C25 C26 1.375(11)
C26 C27 1.405(10)
C27 C28 1.397(9)
C29 C30 1.506(10)
C30 C31 1.371(12)
C30 C35 1.385(9)
C31 C32 1.402(13)
C32 C33 1.377(12)
C33 C34 1.384(13)
C34 C35 1.369(11)
Cu1 C41 1.867(7)
Cu1 Cl3 2.090(2)
N41 C41 1.341(9)
N41 C42 1.394(9)
N41 C44 1.444(8)
N42 C41 1.375(8)
N42 C43 1.387(9)
N42 C53 1.444(8)
C42 C43 1.328(10)
C44 C45 1.387(11)
C44 C49 1.397(11)
C45 C46 1.402(9)
C45 C50 1.492(11)
C46 C47 1.384(11)
C47 C48 1.379(12)
C47 C51 1.518(9)
C48 C49 1.394(9)
C49 C52 1.505(12)
C53 C54 1.386(11)
C53 C58 1.390(11)
C54 C55 1.407(11)
C54 C59 1.517(12)
C55 C56 1.386(13)
C56 C57 1.376(13)
C56 C60 1.518(11)
C57 C58 1.388(11)
C58 C61 1.485(12)
C81 Cl5 1.717(13)
C81 Cl4 1.735(12)
C81B Cl4B 1.734(15)
C81B Cl5B 1.735(15)
loop_
_geom_torsion_atom_site_label_1
_geom_torsion_atom_site_label_2
_geom_torsion_atom_site_label_3
_geom_torsion_atom_site_label_4
_geom_torsion
C22 Ru1 S1 O1 104.4(3)
C1 Ru1 S1 O1 -146(5)
Cl2 Ru1 S1 O1 -157.1(2)
Cl1 Ru1 S1 O1 1.0(3)
C22 Ru1 S1 C28 -14.8(3)
C1 Ru1 S1 C28 95(5)
Cl2 Ru1 S1 C28 83.8(2)
Cl1 Ru1 S1 C28 -118.2(2)
C22 Ru1 S1 C29 -122.7(4)
C1 Ru1 S1 C29 -13(5)
Cl2 Ru1 S1 C29 -24.2(3)
Cl1 Ru1 S1 C29 133.9(3)
C2 N1 C1 N2 0.9(7)
C4 N1 C1 N2 179.2(6)
C2 N1 C1 Ru1 176.6(5)
C4 N1 C1 Ru1 -5.1(11)
C3 N2 C1 N1 -0.7(7)
C13 N2 C1 N1 -178.6(6)
C3 N2 C1 Ru1 -177.0(5)
C13 N2 C1 Ru1 5.1(9)
C22 Ru1 C1 N1 -3.7(7)
Cl2 Ru1 C1 N1 -101.9(6)
Cl1 Ru1 C1 N1 100.0(6)
S1 Ru1 C1 N1 -113(4)
C22 Ru1 C1 N2 171.4(5)
Cl2 Ru1 C1 N2 73.2(5)
Cl1 Ru1 C1 N2 -84.9(5)
S1 Ru1 C1 N2 62(5)
C1 N1 C2 C3 -0.7(8)
C4 N1 C2 C3 -179.1(6)
N1 C2 C3 N2 0.2(8)
C1 N2 C3 C2 0.3(9)
C13 N2 C3 C2 178.3(7)
C1 N1 C4 C5 89.3(9)
C2 N1 C4 C5 -92.6(9)
C1 N1 C4 C9 -87.8(9)
C2 N1 C4 C9 90.4(9)
C9 C4 C5 C6 0.9(12)
N1 C4 C5 C6 -176.1(7)
C9 C4 C5 C10 178.5(7)
N1 C4 C5 C10 1.6(11)
C4 C5 C6 C7 1.3(12)
C10 C5 C6 C7 -176.4(7)
C5 C6 C7 C8 -2.1(12)
C5 C6 C7 C11 175.5(7)
C6 C7 C8 C9 0.9(12)
C11 C7 C8 C9 -176.7(8)
C7 C8 C9 C4 1.1(12)
C7 C8 C9 C12 175.9(7)
C5 C4 C9 C8 -2.0(11)
N1 C4 C9 C8 174.9(7)
C5 C4 C9 C12 -176.8(7)
N1 C4 C9 C12 0.1(11)
C1 N2 C13 C18 -98.4(8)
C3 N2 C13 C18 84.0(8)
C1 N2 C13 C14 86.6(8)
C3 N2 C13 C14 -91.0(8)
C18 C13 C14 C15 5.7(10)
N2 C13 C14 C15 -179.4(6)
C18 C13 C14 C19 -167.6(6)
N2 C13 C14 C19 7.2(9)
C13 C14 C15 C16 -2.4(10)
C19 C14 C15 C16 171.0(6)
C14 C15 C16 C17 -0.9(10)
C14 C15 C16 C20 -178.6(6)
C15 C16 C17 C18 1.1(10)
C20 C16 C17 C18 178.8(7)
C16 C17 C18 C13 2.0(10)
C16 C17 C18 C21 -172.8(6)
C14 C13 C18 C17 -5.5(10)
N2 C13 C18 C17 179.6(6)
C14 C13 C18 C21 169.3(6)
N2 C13 C18 C21 -5.6(10)
C1 Ru1 C22 C23 -160.8(6)
Cl2 Ru1 C22 C23 -71.7(6)
Cl1 Ru1 C22 C23 106.8(6)
S1 Ru1 C22 C23 16.9(5)
Ru1 C22 C23 C28 -12.7(9)
Ru1 C22 C23 C24 169.1(5)
C28 C23 C24 C25 0.4(10)
C22 C23 C24 C25 178.5(6)
C23 C24 C25 C26 -1.8(11)
C24 C25 C26 C27 1.7(11)
C25 C26 C27 C28 -0.2(11)
C24 C23 C28 C27 1.2(11)
C22 C23 C28 C27 -177.0(6)
C24 C23 C28 S1 174.3(5)
C22 C23 C28 S1 -3.9(8)
C26 C27 C28 C23 -1.3(11)
C26 C27 C28 S1 -173.7(5)
O1 S1 C28 C23 -116.2(5)
C29 S1 C28 C23 133.0(5)
Ru1 S1 C28 C23 13.2(5)
O1 S1 C28 C27 56.9(7)
C29 S1 C28 C27 -53.9(7)
Ru1 S1 C28 C27 -173.7(6)
O1 S1 C29 C30 53.0(5)
C28 S1 C29 C30 165.9(5)
Ru1 S1 C29 C30 -87.3(5)
S1 C29 C30 C31 -95.2(8)
S1 C29 C30 C35 85.3(8)
C35 C30 C31 C32 2.0(14)
C29 C30 C31 C32 -177.5(8)
C30 C31 C32 C33 -0.8(15)
C31 C32 C33 C34 -0.8(14)
C32 C33 C34 C35 1.1(14)
C33 C34 C35 C30 0.1(14)
C31 C30 C35 C34 -1.7(13)
C29 C30 C35 C34 177.8(8)
C42 N41 C41 N42 -1.3(9)
C44 N41 C41 N42 -174.1(7)
C42 N41 C41 Cu1 -176.7(6)
C44 N41 C41 Cu1 10.4(11)
C43 N42 C41 N41 0.9(9)
C53 N42 C41 N41 175.1(7)
C43 N42 C41 Cu1 175.8(6)
C53 N42 C41 Cu1 -9.9(12)
Cl3 Cu1 C41 N41 30(2)
Cl3 Cu1 C41 N42 -143.6(14)
C41 N41 C42 C43 1.3(10)
C44 N41 C42 C43 173.8(8)
N41 C42 C43 N42 -0.6(10)
C41 N42 C43 C42 -0.1(10)
C53 N42 C43 C42 -174.4(8)
C41 N41 C44 C45 -100.1(9)
C42 N41 C44 C45 88.0(10)
C41 N41 C44 C49 77.4(10)
C42 N41 C44 C49 -94.4(9)
C49 C44 C45 C46 -1.2(11)
N41 C44 C45 C46 176.3(6)
C49 C44 C45 C50 179.6(7)
N41 C44 C45 C50 -2.9(11)
C44 C45 C46 C47 -0.8(11)
C50 C45 C46 C47 178.4(8)
C45 C46 C47 C48 3.5(12)
C45 C46 C47 C51 -176.3(7)
C46 C47 C48 C49 -4.4(12)
C51 C47 C48 C49 175.4(7)
C47 C48 C49 C44 2.5(11)
C47 C48 C49 C52 -177.4(7)
C45 C44 C49 C48 0.4(11)
N41 C44 C49 C48 -177.1(6)
C45 C44 C49 C52 -179.7(7)
N41 C44 C49 C52 2.8(11)
C41 N42 C53 C54 103.8(9)
C43 N42 C53 C54 -82.7(10)
C41 N42 C53 C58 -81.3(10)
C43 N42 C53 C58 92.1(9)
C58 C53 C54 C55 3.3(12)
N42 C53 C54 C55 177.9(7)
C58 C53 C54 C59 -176.5(8)
N42 C53 C54 C59 -1.9(11)
C53 C54 C55 C56 -1.2(13)
C59 C54 C55 C56 178.6(9)
C54 C55 C56 C57 -0.2(14)
C54 C55 C56 C60 178.8(9)
C55 C56 C57 C58 -0.4(13)
C60 C56 C57 C58 -179.4(9)
C56 C57 C58 C53 2.3(12)
C56 C57 C58 C61 -177.2(8)
C54 C53 C58 C57 -3.8(11)
N42 C53 C58 C57 -178.4(7)
C54 C53 C58 C61 175.7(8)
N42 C53 C58 C61 1.1(11)
#------------------------------------------------------------------------------
#$Date: 2016-03-21 07:44:06 +0200 (Mon, 21 Mar 2016) $
#$Revision: 178579 $
#$URL: svn://www.crystallography.net/cod/cif/4/06/89/4068966.cif $
#------------------------------------------------------------------------------
#
# This file is available in the Crystallography Open Database (COD),
# http://www.crystallography.net/
#
# All data on this site have been placed in the public domain by the
# contributors.
#
data_4068966
loop_
_publ_author_name
'Szadkowska, Anna'
'Makal, Anna'
'Wo\'zniak, Krzysztof'
'Kadyrov, Renat'
'Grela, Karol'
_publ_section_title
;
 Ruthenium Olefin Metathesis Initiators Bearing Chelating Sulfoxide
 Ligands
;
_journal_issue                   9
_journal_name_full               Organometallics
_journal_page_first              2693
_journal_paper_doi               10.1021/om801183g
_journal_volume                  28
_journal_year                    2009
_chemical_formula_moiety         'C34 H33 Cl2 N3 O3 Ru S, 2(C H2 Cl2)'
_chemical_formula_sum            'C36 H37 Cl6 N3 O3 Ru S'
_chemical_formula_weight         905.52
_chemical_name_systematic
;
 ?
;
_space_group_IT_number           2
_symmetry_cell_setting           triclinic
_symmetry_space_group_name_Hall  '-P 1'
_symmetry_space_group_name_H-M   'P -1'
_atom_sites_solution_hydrogens   geom
_atom_sites_solution_primary     direct
_atom_sites_solution_secondary   difmap
_audit_creation_method           SHELXL-97
_cell_angle_alpha                97.083(1)
_cell_angle_beta                 103.681(2)
_cell_angle_gamma                112.009(2)
_cell_formula_units_Z            2
_cell_length_a                   11.4096(12)
_cell_length_b                   13.7388(15)
_cell_length_c                   14.5166(12)
_cell_measurement_reflns_used    620
_cell_measurement_temperature    120(2)
_cell_measurement_theta_max      28.48
_cell_measurement_theta_min      1.49
_cell_volume                     1992.3(3)
_computing_cell_refinement       'Bruker SMART'
_computing_data_collection       'Bruker SMART'
_computing_data_reduction        'Bruker SAINT'
_computing_structure_refinement  'SHELXL-97 (Sheldrick, 1997)'
_computing_structure_solution    'SHELXL-97 (Sheldrick, 1997)'
_diffrn_ambient_temperature      120(2)
_diffrn_measured_fraction_theta_full 0.994
_diffrn_measured_fraction_theta_max 0.994
_diffrn_measurement_device_type  'CCD area detector'
_diffrn_measurement_method       'omega scans'
_diffrn_radiation_monochromator  'Xyclop multi-layer optics'
_diffrn_radiation_source         'TXS rotating anode'
_diffrn_radiation_type           MoK\a
_diffrn_radiation_wavelength     0.71073
_diffrn_reflns_av_R_equivalents  0.0524
_diffrn_reflns_av_sigmaI/netI    0.0476
_diffrn_reflns_limit_h_max       15
_diffrn_reflns_limit_h_min       -15
_diffrn_reflns_limit_k_max       18
_diffrn_reflns_limit_k_min       -18
_diffrn_reflns_limit_l_max       19
_diffrn_reflns_limit_l_min       -18
_diffrn_reflns_number            46788
_diffrn_reflns_theta_full        28.48
_diffrn_reflns_theta_max         28.48
_diffrn_reflns_theta_min         1.49
_exptl_absorpt_coefficient_mu    0.886
_exptl_absorpt_correction_T_max  0.98
_exptl_absorpt_correction_T_min  0.85
_exptl_absorpt_correction_type   multi-scan
_exptl_absorpt_process_details
'Sheldrick, G. M. (1996). SADABS. University of G&#x00F6;ttingen, Germany.'
_exptl_crystal_colour            red
_exptl_crystal_density_diffrn    1.501
_exptl_crystal_density_method    'not measured'
_exptl_crystal_description       planar
_exptl_crystal_F_000             920
_exptl_crystal_size_max          0.1
_exptl_crystal_size_mid          0.09
_exptl_crystal_size_min          0.02
_refine_diff_density_max         1.413
_refine_diff_density_min         -0.995
_refine_diff_density_rms         0.099
_refine_ls_extinction_method     none
_refine_ls_goodness_of_fit_ref   1.028
_refine_ls_hydrogen_treatment    constr
_refine_ls_matrix_type           full
_refine_ls_number_parameters     513
_refine_ls_number_reflns         10026
_refine_ls_number_restraints     77
_refine_ls_restrained_S_all      1.061
_refine_ls_R_factor_all          0.0691
_refine_ls_R_factor_gt           0.0459
_refine_ls_shift/su_max          0.003
_refine_ls_shift/su_mean         0.000
_refine_ls_structure_factor_coef Fsqd
_refine_ls_weighting_details
'calc w=1/[\s^2^(Fo^2^)+(0.0563P)^2^+2.7023P] where P=(Fo^2^+2Fc^2^)/3'
_refine_ls_weighting_scheme      calc
_refine_ls_wR_factor_gt          0.1090
_refine_ls_wR_factor_ref         0.1220
_reflns_number_gt                7662
_reflns_number_total             10026
_reflns_threshold_expression     >2sigma(I)
_cod_data_source_file            om801183g_si_004.cif
_cod_data_source_block           new
_cod_original_sg_symbol_H-M      P-1
_cod_database_code               4068966
loop_
_symmetry_equiv_pos_as_xyz
'x, y, z'
'-x, -y, -z'
loop_
_atom_site_label
_atom_site_type_symbol
_atom_site_fract_x
_atom_site_fract_y
_atom_site_fract_z
_atom_site_U_iso_or_equiv
_atom_site_adp_type
_atom_site_occupancy
_atom_site_symmetry_multiplicity
_atom_site_calc_flag
_atom_site_refinement_flags
_atom_site_disorder_assembly
_atom_site_disorder_group
Ru1 Ru 0.96770(2) 0.25426(2) 0.219792(18) 0.02253(8) Uani 1 1 d . . .
Cl1 Cl 0.90100(9) 0.23172(7) 0.35877(6) 0.0358(2) Uani 1 1 d . . .
Cl2 Cl 0.97754(8) 0.31128(7) 0.07621(6) 0.03019(18) Uani 1 1 d . . .
S1 S 0.79746(8) 0.09065(7) 0.12406(6) 0.02571(17) Uani 1 1 d . . .
O1 O 0.7158(2) 0.0826(2) 0.02536(17) 0.0315(5) Uani 1 1 d . . .
O2 O 0.4345(4) -0.1797(4) 0.3828(3) 0.0849(14) Uani 1 1 d . . .
O3 O 0.2887(3) -0.1506(3) 0.2841(3) 0.0720(11) Uani 1 1 d . . .
N1 N 1.2403(3) 0.4363(2) 0.3628(2) 0.0271(6) Uani 1 1 d . . .
N2 N 1.0951(3) 0.4967(2) 0.3143(2) 0.0272(6) Uani 1 1 d . . .
N3 N 0.4005(4) -0.1428(3) 0.3153(3) 0.0509(9) Uani 1 1 d . . .
C1 C 1.1159(3) 0.4057(3) 0.3025(2) 0.0227(6) Uani 1 1 d . . .
C2 C 1.2951(4) 0.5443(3) 0.4112(3) 0.0373(8) Uani 1 1 d . . .
H2 H 1.3808 0.5838 0.4574 0.045 Uiso 1 1 calc R . .
C3 C 1.2048(4) 0.5819(3) 0.3806(3) 0.0363(8) Uani 1 1 d . . .
H3 H 1.2137 0.6535 0.4004 0.044 Uiso 1 1 calc R . .
C4 C 1.3182(3) 0.3747(3) 0.3681(2) 0.0263(7) Uani 1 1 d . . .
C5 C 1.3854(3) 0.3744(3) 0.2991(3) 0.0323(8) Uani 1 1 d . . .
C6 C 1.4580(4) 0.3132(3) 0.3036(3) 0.0359(8) Uani 1 1 d . . .
H6 H 1.5048 0.3123 0.2576 0.043 Uiso 1 1 calc R . .
C7 C 1.4650(4) 0.2531(3) 0.3731(3) 0.0353(8) Uani 1 1 d . . .
C8 C 1.3978(3) 0.2567(3) 0.4413(3) 0.0321(8) Uani 1 1 d . . .
H8 H 1.4017 0.2158 0.4893 0.039 Uiso 1 1 calc R . .
C9 C 1.3253(3) 0.3185(3) 0.4410(2) 0.0288(7) Uani 1 1 d . . .
C10 C 1.3736(4) 0.4346(4) 0.2199(3) 0.0483(11) Uani 1 1 d . . .
H10A H 1.4304 0.4280 0.1806 0.073 Uiso 1 1 calc R . .
H10B H 1.4016 0.5110 0.2494 0.073 Uiso 1 1 calc R . .
H10C H 1.2810 0.4039 0.1782 0.073 Uiso 1 1 calc R . .
C11 C 1.5442(5) 0.1860(4) 0.3767(3) 0.0529(11) Uani 1 1 d . . .
H11A H 1.5459 0.1615 0.3109 0.079 Uiso 1 1 calc R . .
H11B H 1.5028 0.1231 0.4022 0.079 Uiso 1 1 calc R . .
H11C H 1.6352 0.2297 0.4195 0.079 Uiso 1 1 calc R . .
C12 C 1.2569(4) 0.3237(4) 0.5171(3) 0.0397(9) Uani 1 1 d . . .
H12A H 1.2676 0.2748 0.5588 0.060 Uiso 1 1 calc R . .
H12B H 1.1621 0.3021 0.4851 0.060 Uiso 1 1 calc R . .
H12C H 1.2964 0.3978 0.5570 0.060 Uiso 1 1 calc R . .
C13 C 0.9856(3) 0.5154(3) 0.2574(2) 0.0267(7) Uani 1 1 d . . .
C14 C 0.8769(4) 0.5023(3) 0.2907(2) 0.0300(7) Uani 1 1 d . . .
C15 C 0.7772(4) 0.5253(3) 0.2347(3) 0.0329(8) Uani 1 1 d . . .
H15 H 0.7007 0.5150 0.2546 0.039 Uiso 1 1 calc R . .
C16 C 0.7861(4) 0.5626(3) 0.1513(3) 0.0348(8) Uani 1 1 d . . .
C17 C 0.8991(4) 0.5790(3) 0.1234(3) 0.0338(8) Uani 1 1 d . . .
H17 H 0.9068 0.6061 0.0669 0.041 Uiso 1 1 calc R . .
C18 C 1.0006(4) 0.5570(3) 0.1753(3) 0.0305(7) Uani 1 1 d . . .
C19 C 0.8682(4) 0.4737(3) 0.3855(3) 0.0379(8) Uani 1 1 d . . .
H19A H 0.9111 0.4247 0.3983 0.057 Uiso 1 1 calc R . .
H19B H 0.7747 0.4380 0.3823 0.057 Uiso 1 1 calc R . .
H19C H 0.9131 0.5395 0.4381 0.057 Uiso 1 1 calc R . .
C20 C 0.6784(4) 0.5888(4) 0.0939(3) 0.0489(10) Uani 1 1 d . . .
H20A H 0.5920 0.5377 0.0955 0.073 Uiso 1 1 calc R . .
H20B H 0.6795 0.5832 0.0262 0.073 Uiso 1 1 calc R . .
H20C H 0.6934 0.6624 0.1226 0.073 Uiso 1 1 calc R . .
C21 C 1.1252(4) 0.5830(3) 0.1465(3) 0.0387(9) Uani 1 1 d . . .
H21A H 1.1093 0.5953 0.0806 0.058 Uiso 1 1 calc R . .
H21B H 1.1507 0.5224 0.1479 0.058 Uiso 1 1 calc R . .
H21C H 1.1969 0.6482 0.1924 0.058 Uiso 1 1 calc R . .
C22 C 1.0689(3) 0.1772(3) 0.2214(2) 0.0300(7) Uani 1 1 d . . .
H22 H 1.1598 0.2128 0.2597 0.036 Uiso 1 1 calc R . .
C23 C 1.0205(3) 0.0655(3) 0.1685(2) 0.0287(7) Uani 1 1 d . . .
C24 C 1.1029(4) 0.0121(3) 0.1649(3) 0.0349(8) Uani 1 1 d . . .
H24 H 1.1946 0.0468 0.2014 0.042 Uiso 1 1 calc R . .
C25 C 1.0495(4) -0.0923(3) 0.1075(3) 0.0390(9) Uani 1 1 d . . .
H25 H 1.1053 -0.1286 0.1041 0.047 Uiso 1 1 calc R . .
C26 C 0.9158(4) -0.1438(3) 0.0551(3) 0.0409(9) Uani 1 1 d . . .
H26 H 0.8811 -0.2150 0.0159 0.049 Uiso 1 1 calc R . .
C27 C 0.8324(4) -0.0936(3) 0.0590(3) 0.0386(9) Uani 1 1 d . . .
H27 H 0.7404 -0.1293 0.0236 0.046 Uiso 1 1 calc R . .
C28 C 0.8864(3) 0.0103(3) 0.1160(2) 0.0293(7) Uani 1 1 d . . .
C29 C 0.6816(3) 0.0156(3) 0.1817(2) 0.0278(7) Uani 1 1 d . . .
C30 C 0.7215(4) -0.0212(3) 0.2630(3) 0.0370(8) Uani 1 1 d . . .
H30 H 0.8116 -0.0097 0.2884 0.044 Uiso 1 1 calc R . .
C31 C 0.6291(4) -0.0746(3) 0.3067(3) 0.0411(9) Uani 1 1 d . . .
H31 H 0.6539 -0.1010 0.3622 0.049 Uiso 1 1 calc R . .
C32 C 0.4991(4) -0.0887(3) 0.2674(3) 0.0368(8) Uani 1 1 d . . .
C33 C 0.4578(4) -0.0535(3) 0.1868(3) 0.0328(8) Uani 1 1 d . . .
H33 H 0.3676 -0.0654 0.1615 0.039 Uiso 1 1 calc R . .
C34 C 0.5509(3) -0.0001(3) 0.1431(2) 0.0295(7) Uani 1 1 d . . .
H34 H 0.5253 0.0255 0.0872 0.035 Uiso 1 1 calc R . .
C35A C 0.3451(5) 0.7066(5) 0.9912(5) 0.0364(12) Uani 0.836(4) 1 d PDU A 1
H35A H 0.2645 0.6410 0.9531 0.044 Uiso 0.836(4) 1 calc PR A 1
H35B H 0.3173 0.7642 1.0103 0.044 Uiso 0.836(4) 1 calc PR A 1
Cl4A Cl 0.45030(18) 0.74807(12) 0.91904(12) 0.0650(6) Uani 0.836(4) 1 d PDU A 1
Cl3A Cl 0.42786(16) 0.67904(13) 1.09650(12) 0.0586(5) Uani 0.836(4) 1 d PDU A 1
C35B C 0.321(3) 0.699(4) 0.962(2) 0.058(13) Uani 0.164(4) 1 d PDU A 2
H35C H 0.2484 0.6258 0.9428 0.069 Uiso 0.164(4) 1 calc PR A 2
H35D H 0.2918 0.7483 0.9966 0.069 Uiso 0.164(4) 1 calc PR A 2
Cl4B Cl 0.3456(11) 0.7404(7) 0.8563(7) 0.074(3) Uani 0.164(4) 1 d PDU A 2
Cl3B Cl 0.4626(12) 0.6990(10) 1.0410(11) 0.095(4) Uani 0.164(4) 1 d PDU A 2
C36A C 1.0900(10) 0.8907(7) 0.4266(7) 0.061(3) Uani 0.523(6) 1 d PDU B 3
H36A H 1.0799 0.8707 0.4885 0.073 Uiso 0.523(6) 1 calc PR B 3
H36B H 1.1611 0.8743 0.4101 0.073 Uiso 0.523(6) 1 calc PR B 3
Cl5A Cl 0.9227(5) 0.8245(4) 0.3203(3) 0.1038(17) Uani 0.523(6) 1 d PDU B 3
Cl6A Cl 1.1149(5) 1.0253(3) 0.4288(2) 0.1029(17) Uani 0.523(6) 1 d PDU B 3
C36B C 1.055(3) 0.909(2) 0.469(2) 0.32(2) Uani 0.477(6) 1 d PDU B 4
H36C H 0.9965 0.9477 0.4695 0.383 Uiso 0.477(6) 1 calc PR B 4
H36D H 1.0769 0.8871 0.5302 0.383 Uiso 0.477(6) 1 calc PR B 4
Cl5B Cl 0.9948(7) 0.7941(5) 0.3484(5) 0.127(2) Uani 0.477(6) 1 d PDU B 4
Cl6B Cl 1.1911(14) 0.9740(11) 0.4282(9) 0.282(6) Uani 0.477(6) 1 d PDU B 4
loop_
_atom_site_aniso_label
_atom_site_aniso_U_11
_atom_site_aniso_U_22
_atom_site_aniso_U_33
_atom_site_aniso_U_23
_atom_site_aniso_U_13
_atom_site_aniso_U_12
Ru1 0.01777(13) 0.02387(13) 0.02309(13) 0.00311(9) 0.00380(9) 0.00792(10)
Cl1 0.0332(4) 0.0366(5) 0.0318(4) 0.0044(3) 0.0139(4) 0.0073(4)
Cl2 0.0317(4) 0.0311(4) 0.0267(4) 0.0072(3) 0.0086(3) 0.0120(3)
S1 0.0198(4) 0.0271(4) 0.0251(4) 0.0032(3) 0.0020(3) 0.0082(3)
O1 0.0246(12) 0.0355(13) 0.0271(12) 0.0050(10) 0.0014(9) 0.0096(10)
O2 0.054(2) 0.106(3) 0.094(3) 0.072(3) 0.023(2) 0.017(2)
O3 0.0371(18) 0.098(3) 0.089(3) 0.049(2) 0.0295(18) 0.0226(19)
N1 0.0201(13) 0.0262(14) 0.0285(14) 0.0014(11) 0.0036(11) 0.0067(11)
N2 0.0230(14) 0.0246(14) 0.0297(14) 0.0027(11) 0.0040(11) 0.0091(11)
N3 0.039(2) 0.050(2) 0.054(2) 0.0231(18) 0.0143(17) 0.0051(17)
C1 0.0219(15) 0.0262(15) 0.0221(14) 0.0062(12) 0.0084(12) 0.0112(13)
C2 0.0284(18) 0.0269(17) 0.0390(19) -0.0054(15) -0.0006(15) 0.0037(15)
C3 0.0318(19) 0.0255(17) 0.0392(19) -0.0041(14) -0.0003(15) 0.0092(15)
C4 0.0163(14) 0.0263(16) 0.0283(16) -0.0015(13) 0.0007(12) 0.0066(12)
C5 0.0198(16) 0.0391(19) 0.0316(17) 0.0046(15) 0.0069(13) 0.0074(14)
C6 0.0246(17) 0.046(2) 0.0345(18) 0.0025(16) 0.0109(14) 0.0134(16)
C7 0.0270(18) 0.0354(19) 0.0375(19) -0.0070(15) 0.0049(15) 0.0147(15)
C8 0.0278(17) 0.0333(18) 0.0309(17) 0.0021(14) 0.0037(14) 0.0131(15)
C9 0.0213(16) 0.0331(17) 0.0256(16) -0.0015(13) 0.0015(12) 0.0107(14)
C10 0.034(2) 0.068(3) 0.049(2) 0.025(2) 0.0196(18) 0.019(2)
C11 0.052(3) 0.057(3) 0.055(3) -0.002(2) 0.013(2) 0.036(2)
C12 0.039(2) 0.058(3) 0.0321(18) 0.0123(17) 0.0139(16) 0.029(2)
C13 0.0285(17) 0.0204(15) 0.0274(16) 0.0002(12) 0.0042(13) 0.0106(13)
C14 0.0340(18) 0.0273(16) 0.0291(17) 0.0036(13) 0.0094(14) 0.0145(15)
C15 0.0286(18) 0.0352(19) 0.0356(18) 0.0044(15) 0.0076(15) 0.0167(15)
C16 0.036(2) 0.0274(17) 0.0376(19) 0.0041(14) 0.0028(15) 0.0156(15)
C17 0.042(2) 0.0301(18) 0.0329(18) 0.0097(14) 0.0108(16) 0.0187(16)
C18 0.0340(19) 0.0245(16) 0.0358(18) 0.0060(14) 0.0129(15) 0.0143(14)
C19 0.040(2) 0.051(2) 0.0322(18) 0.0107(16) 0.0130(16) 0.0284(19)
C20 0.041(2) 0.056(3) 0.054(3) 0.019(2) 0.0067(19) 0.028(2)
C21 0.038(2) 0.0339(19) 0.047(2) 0.0153(17) 0.0172(17) 0.0145(17)
C22 0.0219(16) 0.0296(17) 0.0325(17) 0.0036(14) 0.0043(13) 0.0082(14)
C23 0.0244(16) 0.0276(16) 0.0303(16) 0.0039(13) 0.0062(13) 0.0091(14)
C24 0.0297(18) 0.0327(18) 0.041(2) 0.0024(15) 0.0081(15) 0.0148(15)
C25 0.038(2) 0.035(2) 0.049(2) 0.0053(17) 0.0164(18) 0.0205(17)
C26 0.040(2) 0.0304(19) 0.044(2) -0.0033(16) 0.0095(17) 0.0126(17)
C27 0.033(2) 0.0330(19) 0.041(2) -0.0009(16) 0.0068(16) 0.0108(16)
C28 0.0266(17) 0.0270(16) 0.0312(17) 0.0039(13) 0.0076(14) 0.0096(14)
C29 0.0241(16) 0.0238(15) 0.0296(16) 0.0025(13) 0.0044(13) 0.0071(13)
C30 0.0225(17) 0.0358(19) 0.042(2) 0.0117(16) -0.0020(15) 0.0069(15)
C31 0.0312(19) 0.038(2) 0.044(2) 0.0191(17) 0.0013(16) 0.0074(16)
C32 0.0300(19) 0.0304(18) 0.041(2) 0.0108(15) 0.0081(16) 0.0036(15)
C33 0.0244(17) 0.0326(18) 0.0327(18) 0.0025(14) 0.0047(14) 0.0069(14)
C34 0.0236(16) 0.0317(17) 0.0264(16) 0.0027(13) 0.0024(13) 0.0090(14)
C35A 0.029(2) 0.030(2) 0.045(3) 0.001(2) 0.008(2) 0.0113(19)
Cl4A 0.0736(12) 0.0523(8) 0.0613(10) 0.0021(7) 0.0397(9) 0.0103(7)
Cl3A 0.0656(10) 0.0677(9) 0.0645(9) 0.0227(7) 0.0203(7) 0.0491(8)
C35B 0.058(14) 0.056(14) 0.059(14) 0.015(6) 0.015(6) 0.025(7)
Cl4B 0.089(5) 0.065(4) 0.083(5) 0.009(3) 0.054(4) 0.034(3)
Cl3B 0.081(5) 0.091(5) 0.117(6) 0.024(4) 0.014(4) 0.051(4)
C36A 0.066(4) 0.056(4) 0.062(4) 0.025(3) 0.035(4) 0.014(3)
Cl5A 0.114(3) 0.087(2) 0.080(2) 0.0099(17) 0.041(2) 0.005(2)
Cl6A 0.132(3) 0.0607(19) 0.074(2) 0.0181(14) 0.0094(18) 0.0073(17)
C36B 0.32(3) 0.32(3) 0.32(3) 0.077(8) 0.098(9) 0.130(11)
Cl5B 0.137(4) 0.110(3) 0.132(4) 0.010(3) 0.065(3) 0.039(3)
Cl6B 0.282(7) 0.293(7) 0.261(7) 0.041(5) 0.103(5) 0.108(5)
loop_
_atom_type_symbol
_atom_type_description
_atom_type_scat_dispersion_real
_atom_type_scat_dispersion_imag
_atom_type_scat_source
C C 0.0033 0.0016 'International Tables Vol C Tables 4.2.6.8 and 6.1.1.4'
H H 0.0000 0.0000 'International Tables Vol C Tables 4.2.6.8 and 6.1.1.4'
N N 0.0061 0.0033 'International Tables Vol C Tables 4.2.6.8 and 6.1.1.4'
O O 0.0106 0.0060 'International Tables Vol C Tables 4.2.6.8 and 6.1.1.4'
S S 0.1246 0.1234 'International Tables Vol C Tables 4.2.6.8 and 6.1.1.4'
Cl Cl 0.1484 0.1585 'International Tables Vol C Tables 4.2.6.8 and 6.1.1.4'
Ru Ru -1.2594 0.8363 'International Tables Vol C Tables 4.2.6.8 and 6.1.1.4'
loop_
_geom_angle_atom_site_label_1
_geom_angle_atom_site_label_2
_geom_angle_atom_site_label_3
_geom_angle
C22 Ru1 C1 99.52(14)
C22 Ru1 Cl2 100.11(11)
C1 Ru1 Cl2 90.55(8)
C22 Ru1 S1 83.01(11)
C1 Ru1 S1 177.15(9)
Cl2 Ru1 S1 87.69(3)
C22 Ru1 Cl1 102.86(11)
C1 Ru1 Cl1 87.45(8)
Cl2 Ru1 Cl1 156.95(4)
S1 Ru1 Cl1 93.29(3)
O1 S1 C28 109.61(15)
O1 S1 C29 105.35(15)
C28 S1 C29 100.80(16)
O1 S1 Ru1 121.54(10)
C28 S1 Ru1 100.94(11)
C29 S1 Ru1 116.43(11)
C1 N1 C2 111.1(3)
C1 N1 C4 126.7(3)
C2 N1 C4 121.5(3)
C1 N2 C3 111.2(3)
C1 N2 C13 127.9(3)
C3 N2 C13 120.2(3)
O3 N3 O2 122.9(4)
O3 N3 C32 118.7(4)
O2 N3 C32 118.4(4)
N1 C1 N2 103.9(3)
N1 C1 Ru1 132.3(2)
N2 C1 Ru1 123.4(2)
C3 C2 N1 106.8(3)
C2 C3 N2 106.9(3)
C9 C4 C5 122.4(3)
C9 C4 N1 119.5(3)
C5 C4 N1 118.1(3)
C6 C5 C4 117.6(3)
C6 C5 C10 121.3(3)
C4 C5 C10 121.0(3)
C5 C6 C7 122.2(3)
C6 C7 C8 118.3(3)
C6 C7 C11 121.6(4)
C8 C7 C11 120.1(4)
C9 C8 C7 121.7(3)
C4 C9 C8 117.7(3)
C4 C9 C12 121.5(3)
C8 C9 C12 120.8(3)
C14 C13 C18 122.3(3)
C14 C13 N2 119.7(3)
C18 C13 N2 117.6(3)
C13 C14 C15 117.1(3)
C13 C14 C19 123.2(3)
C15 C14 C19 119.5(3)
C16 C15 C14 122.2(3)
C15 C16 C17 118.6(3)
C15 C16 C20 120.9(4)
C17 C16 C20 120.5(4)
C18 C17 C16 121.9(3)
C17 C18 C13 117.8(3)
C17 C18 C21 120.1(3)
C13 C18 C21 122.0(3)
C23 C22 Ru1 124.9(3)
C28 C23 C24 118.2(3)
C28 C23 C22 118.5(3)
C24 C23 C22 123.3(3)
C25 C24 C23 119.4(3)
C26 C25 C24 120.6(4)
C27 C26 C25 121.0(3)
C26 C27 C28 118.0(4)
C27 C28 C23 122.8(3)
C27 C28 S1 124.5(3)
C23 C28 S1 112.6(3)
C34 C29 C30 121.5(3)
C34 C29 S1 116.6(3)
C30 C29 S1 121.8(3)
C31 C30 C29 119.3(3)
C30 C31 C32 118.2(3)
C33 C32 C31 123.2(3)
C33 C32 N3 118.2(3)
C31 C32 N3 118.6(3)
C32 C33 C34 118.4(3)
C29 C34 C33 119.4(3)
Cl4A C35A Cl3A 110.2(3)
Cl4B C35B Cl3B 113.6(15)
Cl6A C36A Cl5A 96.3(6)
Cl6B C36B Cl5B 84.6(10)
C36B Cl6B Cl5B 51.7(7)
loop_
_geom_bond_atom_site_label_1
_geom_bond_atom_site_label_2
_geom_bond_distance
Ru1 C22 1.834(4)
Ru1 C1 2.102(3)
Ru1 Cl2 2.3276(8)
Ru1 S1 2.3318(8)
Ru1 Cl1 2.3344(9)
S1 O1 1.478(2)
S1 C28 1.768(4)
S1 C29 1.795(3)
O2 N3 1.207(5)
O3 N3 1.206(5)
N1 C1 1.353(4)
N1 C2 1.388(4)
N1 C4 1.436(4)
N2 C1 1.356(4)
N2 C3 1.384(4)
N2 C13 1.454(4)
N3 C32 1.475(5)
C2 C3 1.328(5)
C4 C9 1.389(5)
C4 C5 1.399(5)
C5 C6 1.381(5)
C5 C10 1.506(5)
C6 C7 1.386(6)
C7 C8 1.396(5)
C7 C11 1.511(6)
C8 C9 1.390(5)
C9 C12 1.506(5)
C13 C14 1.393(5)
C13 C18 1.402(5)
C14 C15 1.396(5)
C14 C19 1.493(5)
C15 C16 1.382(5)
C16 C17 1.389(5)
C16 C20 1.501(5)
C17 C18 1.381(5)
C18 C21 1.504(5)
C22 C23 1.457(5)
C23 C28 1.390(5)
C23 C24 1.400(5)
C24 C25 1.390(5)
C25 C26 1.384(5)
C26 C27 1.376(6)
C27 C28 1.382(5)
C29 C34 1.385(5)
C29 C30 1.387(5)
C30 C31 1.380(5)
C31 C32 1.386(5)
C32 C33 1.368(5)
C33 C34 1.385(5)
C35A Cl4A 1.758(5)
C35A Cl3A 1.761(7)
C35B Cl4B 1.740(18)
C35B Cl3B 1.75(2)
C36A Cl6A 1.759(10)
C36A Cl5A 1.953(11)
C36B Cl6B 1.75(2)
C36B Cl5B 1.99(2)
Cl5B Cl6B 2.526(14)
loop_
_geom_torsion_atom_site_label_1
_geom_torsion_atom_site_label_2
_geom_torsion_atom_site_label_3
_geom_torsion_atom_site_label_4
_geom_torsion
C22 Ru1 S1 O1 -123.83(17)
Cl2 Ru1 S1 O1 -23.35(13)
Cl1 Ru1 S1 O1 133.60(13)
C22 Ru1 S1 C28 -2.52(16)
Cl2 Ru1 S1 C28 97.96(12)
Cl1 Ru1 S1 C28 -105.09(12)
C22 Ru1 S1 C29 105.48(17)
Cl2 Ru1 S1 C29 -154.04(13)
Cl1 Ru1 S1 C29 2.91(14)
C2 N1 C1 N2 0.2(4)
C4 N1 C1 N2 -170.6(3)
C2 N1 C1 Ru1 -172.3(3)
C4 N1 C1 Ru1 16.9(5)
C3 N2 C1 N1 0.1(4)
C13 N2 C1 N1 170.5(3)
C3 N2 C1 Ru1 173.4(2)
C13 N2 C1 Ru1 -16.2(4)
C22 Ru1 C1 N1 -16.4(3)
Cl2 Ru1 C1 N1 -116.8(3)
Cl1 Ru1 C1 N1 86.2(3)
C22 Ru1 C1 N2 172.4(3)
Cl2 Ru1 C1 N2 72.0(2)
Cl1 Ru1 C1 N2 -85.0(2)
C1 N1 C2 C3 -0.4(4)
C4 N1 C2 C3 171.0(3)
N1 C2 C3 N2 0.4(4)
C1 N2 C3 C2 -0.3(4)
C13 N2 C3 C2 -171.5(3)
C1 N1 C4 C9 -99.5(4)
C2 N1 C4 C9 90.6(4)
C1 N1 C4 C5 81.0(4)
C2 N1 C4 C5 -88.9(4)
C9 C4 C5 C6 1.7(5)
N1 C4 C5 C6 -178.8(3)
C9 C4 C5 C10 178.9(3)
N1 C4 C5 C10 -1.6(5)
C4 C5 C6 C7 0.3(5)
C10 C5 C6 C7 -176.9(4)
C5 C6 C7 C8 -1.1(5)
C5 C6 C7 C11 179.6(4)
C6 C7 C8 C9 0.0(5)
C11 C7 C8 C9 179.2(3)
C5 C4 C9 C8 -2.8(5)
N1 C4 C9 C8 177.7(3)
C5 C4 C9 C12 177.3(3)
N1 C4 C9 C12 -2.2(5)
C7 C8 C9 C4 1.9(5)
C7 C8 C9 C12 -178.2(3)
C1 N2 C13 C14 96.6(4)
C3 N2 C13 C14 -93.8(4)
C1 N2 C13 C18 -89.9(4)
C3 N2 C13 C18 79.7(4)
C18 C13 C14 C15 4.5(5)
N2 C13 C14 C15 177.7(3)
C18 C13 C14 C19 -170.7(3)
N2 C13 C14 C19 2.5(5)
C13 C14 C15 C16 -1.9(5)
C19 C14 C15 C16 173.5(3)
C14 C15 C16 C17 -0.9(5)
C14 C15 C16 C20 -178.7(4)
C15 C16 C17 C18 1.4(5)
C20 C16 C17 C18 179.1(4)
C16 C17 C18 C13 1.0(5)
C16 C17 C18 C21 -175.9(3)
C14 C13 C18 C17 -4.1(5)
N2 C13 C18 C17 -177.5(3)
C14 C13 C18 C21 172.8(3)
N2 C13 C18 C21 -0.6(5)
C1 Ru1 C22 C23 -175.3(3)
Cl2 Ru1 C22 C23 -83.0(3)
S1 Ru1 C22 C23 3.4(3)
Cl1 Ru1 C22 C23 95.1(3)
Ru1 C22 C23 C28 -3.1(5)
Ru1 C22 C23 C24 174.5(3)
C28 C23 C24 C25 1.7(5)
C22 C23 C24 C25 -175.9(3)
C23 C24 C25 C26 -0.8(6)
C24 C25 C26 C27 -0.4(6)
C25 C26 C27 C28 0.7(6)
C26 C27 C28 C23 0.3(6)
C26 C27 C28 S1 175.9(3)
C24 C23 C28 C27 -1.5(5)
C22 C23 C28 C27 176.2(3)
C24 C23 C28 S1 -177.5(3)
C22 C23 C28 S1 0.2(4)
O1 S1 C28 C27 -44.7(4)
C29 S1 C28 C27 66.0(3)
Ru1 S1 C28 C27 -174.1(3)
O1 S1 C28 C23 131.2(3)
C29 S1 C28 C23 -118.1(3)
Ru1 S1 C28 C23 1.8(3)
O1 S1 C29 C34 -21.2(3)
C28 S1 C29 C34 -135.2(3)
Ru1 S1 C29 C34 116.7(2)
O1 S1 C29 C30 161.3(3)
C28 S1 C29 C30 47.3(3)
Ru1 S1 C29 C30 -60.8(3)
C34 C29 C30 C31 -0.1(6)
S1 C29 C30 C31 177.4(3)
C29 C30 C31 C32 -0.4(6)
C30 C31 C32 C33 0.9(6)
C30 C31 C32 N3 -178.2(4)
O3 N3 C32 C33 -2.6(6)
O2 N3 C32 C33 175.7(4)
O3 N3 C32 C31 176.5(4)
O2 N3 C32 C31 -5.2(6)
C31 C32 C33 C34 -0.8(6)
N3 C32 C33 C34 178.3(3)
C30 C29 C34 C33 0.2(5)
S1 C29 C34 C33 -177.4(3)
C32 C33 C34 C29 0.2(5)
#------------------------------------------------------------------------------
#$Date: 2016-03-21 10:13:12 +0200 (Mon, 21 Mar 2016) $
#$Revision: 178640 $
#$URL: svn://www.crystallography.net/cod/cif/4/07/51/4075179.cif $
#------------------------------------------------------------------------------
#
# This file is available in the Crystallography Open Database (COD),
# http://www.crystallography.net/
#
# All data on this site have been placed in the public domain by the
# contributors.
#
data_4075179
loop_
_publ_author_name
'Barbasiewicz, Micha\/l'
'Szadkowska, Anna'
'Bujok, Robert'
'Grela, Karol'
_publ_section_title
;
 Structure and Activity Peculiarities of Ruthenium Quinoline and
 Quinoxaline Complexes:&#x00A0; Novel Metathesis Catalysts
;
_journal_issue                   15
_journal_name_full               Organometallics
_journal_page_first              3599
_journal_paper_doi               10.1021/om060091u
_journal_volume                  25
_journal_year                    2006
_chemical_formula_sum            'C37 H39 Cl2 N3 Ru'
_chemical_formula_weight         697.68
_chemical_name_systematic
; 
 ? 
;
_space_group_IT_number           2
_symmetry_cell_setting           triclinic
_symmetry_space_group_name_Hall  '-P 1'
_symmetry_space_group_name_H-M   'P -1'
_atom_sites_solution_hydrogens   geom
_atom_sites_solution_primary     direct
_atom_sites_solution_secondary   difmap
_audit_creation_method           SHELXL-97
_cell_angle_alpha                99.718(3)
_cell_angle_beta                 103.196(3)
_cell_angle_gamma                90.296(3)
_cell_formula_units_Z            2
_cell_length_a                   9.5564(4)
_cell_length_b                   10.2328(4)
_cell_length_c                   18.3284(7)
_cell_measurement_temperature    200(2)
_cell_volume                     1718.16(12)
_computing_cell_refinement
;
CrysAlis RED, Oxford Diffraction Ltd.,
Version 1.171.27p5 beta 
;
_computing_data_collection
;
CrysAlis CCD, Oxford Diffraction Ltd.,
Version 1.171.27p5 beta 
;
_computing_data_reduction
;
CrysAlis RED, Oxford Diffraction Ltd.,
Version 1.171.27p5 beta 
;
_computing_molecular_graphics    'Diamond 1.2'
_computing_publication_material  SHELXTL-97
_computing_structure_refinement  'SHELXL-97 (Sheldrick, 1997)'
_computing_structure_solution    'SHELXS-97 (Sheldrick, 1990)'
_diffrn_ambient_temperature      200(2)
_diffrn_detector_area_resol_mean 8.6479
_diffrn_measured_fraction_theta_full 0.993
_diffrn_measured_fraction_theta_max 0.993
_diffrn_measurement_device_type  KM4CCD
_diffrn_measurement_method       'omega scan'
_diffrn_radiation_monochromator  graphite
_diffrn_radiation_source         'fine-focus sealed tube'
_diffrn_radiation_type           MoK\a
_diffrn_radiation_wavelength     0.71073
_diffrn_reflns_av_R_equivalents  0.0324
_diffrn_reflns_av_sigmaI/netI    0.0530
_diffrn_reflns_limit_h_max       12
_diffrn_reflns_limit_h_min       -12
_diffrn_reflns_limit_k_max       13
_diffrn_reflns_limit_k_min       -13
_diffrn_reflns_limit_l_max       23
_diffrn_reflns_limit_l_min       -23
_diffrn_reflns_number            31121
_diffrn_reflns_theta_full        27.50
_diffrn_reflns_theta_max         27.50
_diffrn_reflns_theta_min         2.71
_diffrn_standards_decay_%        2
_diffrn_standards_interval_count '50 frames'
_diffrn_standards_interval_time  '3700 sec'
_diffrn_standards_number         '1 frame'
_exptl_absorpt_coefficient_mu    0.641
_exptl_absorpt_correction_T_max  0.95
_exptl_absorpt_correction_T_min  0.87
_exptl_absorpt_correction_type   analytical
_exptl_absorpt_process_details
;
CrysAlis RED, Oxford Diffraction Ltd.,
Version 1.171.27p5 beta
Analytical numeric absorption correction using a multifaceted crystal
model based on expressions derived by R.C. Clark & J.S. Reid.
;
_exptl_crystal_colour            green
_exptl_crystal_density_diffrn    1.349
_exptl_crystal_density_method    'not measured'
_exptl_crystal_description       prismatic
_exptl_crystal_F_000             720
_exptl_crystal_size_max          0.32
_exptl_crystal_size_mid          0.15
_exptl_crystal_size_min          0.10
_refine_diff_density_max         1.513
_refine_diff_density_min         -0.994
_refine_diff_density_rms         0.218
_refine_ls_extinction_coef       0.0218(14)
_refine_ls_extinction_expression Fc^*^=kFc[1+0.001xFc^2^\l^3^/sin(2\q)]^-1/4^
_refine_ls_extinction_method     SHELXL
_refine_ls_goodness_of_fit_ref   1.094
_refine_ls_hydrogen_treatment    constr
_refine_ls_matrix_type           full
_refine_ls_number_parameters     395
_refine_ls_number_reflns         7851
_refine_ls_number_restraints     54
_refine_ls_restrained_S_all      1.198
_refine_ls_R_factor_all          0.0631
_refine_ls_R_factor_gt           0.0434
_refine_ls_shift/su_max          0.001
_refine_ls_shift/su_mean         0.000
_refine_ls_structure_factor_coef Fsqd
_refine_ls_weighting_details
'calc w=1/[\s^2^(Fo^2^)+(0.0665P)^2^+0.0000P] where P=(Fo^2^+2Fc^2^)/3'
_refine_ls_weighting_scheme      calc
_refine_ls_wR_factor_gt          0.1076
_refine_ls_wR_factor_ref         0.1290
_reflns_number_gt                5783
_reflns_number_total             7851
_reflns_threshold_expression     >2sigma(I)
_cod_data_source_file            om060091usi20060503_032955.cif
_cod_data_source_block           c003501
_cod_depositor_comments
;
The following automatic conversions were performed:

'_symmetry_cell_setting' value 'Triclinic' changed to 'triclinic'
according to /home/saulius/struct/CIF-dictionaries/cif_core.dic
dictionary named 'cif_core.dic' version 2.4.1 from 2010-06-29.

Automatic conversion script
Id: cif_fix_values 1715 2011-07-08 13:25:40Z adriana 
;
_cod_original_sg_symbol_H-M      P-1
_cod_database_code               4075179
loop_
_symmetry_equiv_pos_as_xyz
'x, y, z'
'-x, -y, -z'
loop_
_atom_site_label
_atom_site_type_symbol
_atom_site_fract_x
_atom_site_fract_y
_atom_site_fract_z
_atom_site_U_iso_or_equiv
_atom_site_adp_type
_atom_site_occupancy
_atom_site_symmetry_multiplicity
_atom_site_calc_flag
_atom_site_refinement_flags
Ru1 Ru 0.64038(3) 0.79914(3) 0.291161(16) 0.03125(14) Uani 1 1 d .
Cl1 Cl 0.49743(11) 0.95920(10) 0.23577(6) 0.0441(3) Uani 1 1 d .
Cl2 Cl 0.84529(11) 0.67380(11) 0.31642(6) 0.0504(3) Uani 1 1 d .
N1 N 0.4566(3) 0.5342(3) 0.22837(18) 0.0411(8) Uani 1 1 d .
N2 N 0.5417(4) 0.6082(3) 0.14204(17) 0.0424(8) Uani 1 1 d .
N3 N 0.7662(3) 0.9634(3) 0.36835(16) 0.0319(7) Uani 1 1 d .
C1 C 0.5323(4) 0.6376(4) 0.2162(2) 0.0349(8) Uani 1 1 d U
C2 C 0.4036(5) 0.4323(5) 0.1593(2) 0.0571(13) Uani 1 1 d .
H2A H 0.2976 0.4319 0.1417 0.069 Uiso 1 1 calc R
H2B H 0.4319 0.3426 0.1688 0.069 Uiso 1 1 calc R
C3 C 0.4773(6) 0.4763(5) 0.1023(3) 0.0692(16) Uani 1 1 d .
H3A H 0.5521 0.4146 0.0910 0.083 Uiso 1 1 calc R
H3B H 0.4073 0.4829 0.0542 0.083 Uiso 1 1 calc R
C4 C 0.2721(4) 0.5897(4) 0.3006(2) 0.0373(9) Uani 1 1 d U
C5 C 0.2125(4) 0.5712(4) 0.3610(2) 0.0408(9) Uani 1 1 d U
H22 H 0.1271 0.6145 0.3671 0.049 Uiso 1 1 calc R
C6 C 0.2750(5) 0.4909(4) 0.4129(2) 0.0469(11) Uani 1 1 d U
C7 C 0.4011(5) 0.4295(4) 0.4037(3) 0.0493(11) Uani 1 1 d U
H48 H 0.4462 0.3774 0.4400 0.059 Uiso 1 1 calc R
C8 C 0.4636(4) 0.4414(4) 0.3436(2) 0.0428(10) Uani 1 1 d U
C9 C 0.3986(4) 0.5237(4) 0.2931(2) 0.0359(9) Uani 1 1 d U
C10 C 0.2070(5) 0.6817(5) 0.2466(2) 0.0507(11) Uani 1 1 d U
H44A H 0.1129 0.7078 0.2554 0.076 Uiso 1 1 calc R
H44B H 0.1953 0.6359 0.1940 0.076 Uiso 1 1 calc R
H44C H 0.2707 0.7610 0.2555 0.076 Uiso 1 1 calc R
C11 C 0.2058(6) 0.4699(5) 0.4769(3) 0.0670(15) Uani 1 1 d .
H67A H 0.2646 0.4122 0.5080 0.101 Uiso 1 1 calc R
H67B H 0.1093 0.4281 0.4554 0.101 Uiso 1 1 calc R
H67C H 0.1986 0.5557 0.5086 0.101 Uiso 1 1 calc R
C12 C 0.5960(5) 0.3656(5) 0.3332(3) 0.0660(14) Uani 1 1 d U
H65A H 0.5707 0.2978 0.2872 0.099 Uiso 1 1 calc R
H65B H 0.6320 0.3230 0.3775 0.099 Uiso 1 1 calc R
H65C H 0.6708 0.4273 0.3283 0.099 Uiso 1 1 calc R
C13 C 0.6098(5) 0.6832(4) 0.0988(2) 0.0435(10) Uani 1 1 d U
C14 C 0.5255(6) 0.7665(5) 0.0544(3) 0.0629(13) Uani 1 1 d U
C15 C 0.5891(9) 0.8284(5) 0.0065(3) 0.0787(17) Uani 1 1 d U
H15 H 0.5349 0.8867 -0.0231 0.094 Uiso 1 1 calc R
C16 C 0.7271(9) 0.8060(6) 0.0018(3) 0.0839(18) Uani 1 1 d U
C17 C 0.8075(6) 0.7196(6) 0.0417(3) 0.0726(16) Uani 1 1 d U
H17 H 0.9031 0.7040 0.0368 0.087 Uiso 1 1 calc R
C18 C 0.7478(5) 0.6530(4) 0.0906(2) 0.0508(11) Uani 1 1 d U
C19 C 0.3700(7) 0.7831(7) 0.0550(3) 0.095(2) Uani 1 1 d U
H19A H 0.3211 0.6956 0.0467 0.142 Uiso 1 1 calc R
H19B H 0.3249 0.8310 0.0143 0.142 Uiso 1 1 calc R
H19C H 0.3623 0.8336 0.1042 0.142 Uiso 1 1 calc R
C20 C 0.7920(9) 0.8780(6) -0.0522(3) 0.1072(18) Uani 1 1 d U
H20A H 0.7169 0.8859 -0.0974 0.161 Uiso 1 1 calc R
H20B H 0.8700 0.8267 -0.0675 0.161 Uiso 1 1 calc R
H20C H 0.8299 0.9667 -0.0255 0.161 Uiso 1 1 calc R
C21 C 0.8324(5) 0.5485(5) 0.1268(3) 0.0707(15) Uani 1 1 d U
H21A H 0.8022 0.5388 0.1734 0.106 Uiso 1 1 calc R
H21B H 0.9351 0.5745 0.1396 0.106 Uiso 1 1 calc R
H21C H 0.8153 0.4639 0.0913 0.106 Uiso 1 1 calc R
C22 C 0.5729(4) 0.7903(3) 0.3769(2) 0.0332(8) Uani 1 1 d .
H22A H 0.4969 0.7288 0.3752 0.040 Uiso 1 1 calc R
C23 C 0.6392(4) 0.8800(3) 0.4477(2) 0.0326(8) Uani 1 1 d .
C24 C 0.6088(4) 0.8838(4) 0.5183(2) 0.0378(9) Uani 1 1 d .
H30 H 0.5375 0.8240 0.5242 0.045 Uiso 1 1 calc R
C25 C 0.6839(5) 0.9769(4) 0.5819(2) 0.0455(11) Uani 1 1 d .
H42 H 0.6637 0.9772 0.6304 0.055 Uiso 1 1 calc R
C26 C 0.7849(5) 1.0663(4) 0.5746(2) 0.0428(10) Uani 1 1 d .
H29 H 0.8341 1.1271 0.6181 0.051 Uiso 1 1 calc R
C27 C 0.8171(4) 1.0695(4) 0.5029(2) 0.0365(9) Uani 1 1 d .
C28 C 0.9169(4) 1.1582(4) 0.4882(2) 0.0440(10) Uani 1 1 d .
H38 H 0.9697 1.2239 0.5280 0.053 Uiso 1 1 calc R
C29 C 0.9365(5) 1.1481(4) 0.4158(3) 0.0474(11) Uani 1 1 d .
H45 H 1.0020 1.2084 0.4051 0.057 Uiso 1 1 calc R
C30 C 0.8603(4) 1.0493(4) 0.3571(2) 0.0410(9) Uani 1 1 d .
H37 H 0.8768 1.0438 0.3075 0.049 Uiso 1 1 calc R
C31 C 0.7439(4) 0.9738(3) 0.44026(19) 0.0293(8) Uani 1 1 d .
C1S C 0.9666(7) 0.2777(5) 0.2346(3) 0.0765(16) Uani 1 1 d .
H77 H 0.9607 0.3685 0.2554 0.092 Uiso 1 1 calc R
C2S C 0.8449(6) 0.2056(6) 0.1895(3) 0.0776(17) Uani 1 1 d .
H74 H 0.7553 0.2466 0.1791 0.093 Uiso 1 1 calc R
C3S C 0.8552(6) 0.0742(6) 0.1599(3) 0.0678(15) Uani 1 1 d .
H76 H 0.7721 0.0245 0.1290 0.081 Uiso 1 1 calc R
C4S C 0.9835(6) 0.0143(5) 0.1744(3) 0.0618(13) Uani 1 1 d .
H75 H 0.9893 -0.0766 0.1539 0.074 Uiso 1 1 calc R
C5S C 1.1044(6) 0.0859(6) 0.2189(3) 0.0643(14) Uani 1 1 d .
H72 H 1.1941 0.0448 0.2287 0.077 Uiso 1 1 calc R
C6S C 1.0948(6) 0.2174(6) 0.2490(3) 0.0671(15) Uani 1 1 d .
H73 H 1.1781 0.2666 0.2800 0.081 Uiso 1 1 calc R
loop_
_atom_site_aniso_label
_atom_site_aniso_U_11
_atom_site_aniso_U_22
_atom_site_aniso_U_33
_atom_site_aniso_U_23
_atom_site_aniso_U_13
_atom_site_aniso_U_12
Ru1 0.02983(19) 0.0336(2) 0.02489(18) -0.00722(12) 0.00442(12) -0.00144(12)
Cl1 0.0485(6) 0.0409(5) 0.0373(5) 0.0007(4) 0.0027(4) 0.0048(4)
Cl2 0.0336(5) 0.0557(6) 0.0475(6) -0.0157(5) -0.0026(4) 0.0091(5)
N1 0.0416(19) 0.0424(19) 0.0326(17) -0.0177(14) 0.0132(14) -0.0160(15)
N2 0.047(2) 0.0461(19) 0.0269(17) -0.0149(15) 0.0105(15) -0.0165(16)
N3 0.0317(16) 0.0315(16) 0.0277(16) -0.0050(13) 0.0045(13) -0.0017(13)
C1 0.0315(19) 0.041(2) 0.0293(19) -0.0053(16) 0.0094(15) -0.0021(16)
C2 0.065(3) 0.055(3) 0.043(3) -0.025(2) 0.019(2) -0.026(2)
C3 0.081(4) 0.072(3) 0.044(3) -0.033(2) 0.025(3) -0.045(3)
C4 0.036(2) 0.036(2) 0.034(2) -0.0062(16) 0.0047(16) -0.0105(16)
C5 0.041(2) 0.037(2) 0.042(2) -0.0080(18) 0.0154(18) -0.0069(17)
C6 0.063(3) 0.034(2) 0.041(2) -0.0077(18) 0.019(2) -0.019(2)
C7 0.064(3) 0.033(2) 0.049(3) 0.0027(19) 0.011(2) -0.005(2)
C8 0.042(2) 0.032(2) 0.048(2) -0.0076(18) 0.0088(19) -0.0053(17)
C9 0.036(2) 0.0323(19) 0.034(2) -0.0109(16) 0.0086(16) -0.0107(16)
C10 0.042(2) 0.062(3) 0.043(2) 0.004(2) 0.0028(19) 0.003(2)
C11 0.094(4) 0.057(3) 0.057(3) 0.004(2) 0.037(3) -0.022(3)
C12 0.059(3) 0.058(3) 0.072(3) -0.008(2) 0.011(3) 0.013(2)
C13 0.060(3) 0.041(2) 0.0238(19) -0.0113(17) 0.0114(18) -0.011(2)
C14 0.092(4) 0.052(3) 0.033(2) -0.015(2) 0.006(2) 0.003(3)
C15 0.144(5) 0.040(3) 0.041(3) -0.003(2) 0.006(3) -0.001(3)
C16 0.148(5) 0.051(3) 0.047(3) -0.016(2) 0.029(3) -0.038(3)
C17 0.086(4) 0.070(3) 0.054(3) -0.028(3) 0.029(3) -0.041(3)
C18 0.058(3) 0.053(3) 0.034(2) -0.0188(19) 0.014(2) -0.021(2)
C19 0.096(4) 0.105(4) 0.056(3) -0.020(3) -0.014(3) 0.034(4)
C20 0.177(5) 0.075(3) 0.068(3) -0.002(3) 0.037(3) -0.042(3)
C21 0.056(3) 0.089(4) 0.055(3) -0.020(3) 0.011(2) 0.003(3)
C22 0.0318(19) 0.0287(18) 0.035(2) -0.0031(16) 0.0051(16) -0.0017(15)
C23 0.040(2) 0.0275(18) 0.0281(19) 0.0010(15) 0.0049(16) 0.0080(16)
C24 0.048(2) 0.034(2) 0.032(2) 0.0045(16) 0.0104(18) 0.0079(17)
C25 0.062(3) 0.047(2) 0.024(2) 0.0005(18) 0.0071(19) 0.018(2)
C26 0.053(3) 0.039(2) 0.026(2) -0.0106(17) -0.0021(18) 0.0091(19)
C27 0.037(2) 0.034(2) 0.029(2) -0.0067(16) -0.0020(16) 0.0058(17)
C28 0.038(2) 0.034(2) 0.046(2) -0.0138(18) -0.0009(19) -0.0023(17)
C29 0.045(2) 0.038(2) 0.053(3) -0.006(2) 0.009(2) -0.0118(19)
C30 0.045(2) 0.042(2) 0.034(2) -0.0028(18) 0.0126(18) -0.0081(18)
C31 0.0312(19) 0.0272(18) 0.0247(18) -0.0041(14) 0.0029(14) 0.0043(15)
C1S 0.109(5) 0.049(3) 0.065(4) 0.003(3) 0.011(3) -0.003(3)
C2S 0.071(4) 0.091(5) 0.067(4) 0.020(3) 0.003(3) 0.014(3)
C3S 0.066(3) 0.081(4) 0.045(3) -0.003(3) 0.001(2) -0.024(3)
C4S 0.080(4) 0.058(3) 0.045(3) -0.003(2) 0.019(3) -0.007(3)
C5S 0.059(3) 0.095(4) 0.043(3) 0.017(3) 0.016(2) 0.013(3)
C6S 0.069(4) 0.076(4) 0.048(3) 0.006(3) 0.002(3) -0.030(3)
loop_
_atom_type_symbol
_atom_type_description
_atom_type_scat_dispersion_real
_atom_type_scat_dispersion_imag
_atom_type_scat_source
Ru Ru -1.2594 0.8363 'International Tables Vol C Tables 4.2.6.8 and 6.1.1.4'
Cl Cl 0.1484 0.1585 'International Tables Vol C Tables 4.2.6.8 and 6.1.1.4'
N N 0.0061 0.0033 'International Tables Vol C Tables 4.2.6.8 and 6.1.1.4'
C C 0.0033 0.0016 'International Tables Vol C Tables 4.2.6.8 and 6.1.1.4'
H H 0.0000 0.0000 'International Tables Vol C Tables 4.2.6.8 and 6.1.1.4'
loop_
_geom_angle_atom_site_label_1
_geom_angle_atom_site_label_2
_geom_angle_atom_site_label_3
_geom_angle
C22 Ru1 C1 101.60(15)
C22 Ru1 N3 80.55(14)
C1 Ru1 N3 176.37(12)
C22 Ru1 Cl2 99.42(11)
C1 Ru1 Cl2 89.69(11)
N3 Ru1 Cl2 87.06(8)
C22 Ru1 Cl1 102.89(11)
C1 Ru1 Cl1 95.62(11)
N3 Ru1 Cl1 86.70(8)
Cl2 Ru1 Cl1 155.48(5)
C1 N1 C9 128.6(3)
C1 N1 C2 113.8(3)
C9 N1 C2 116.4(3)
C1 N2 C13 129.8(3)
C1 N2 C3 113.9(3)
C13 N2 C3 116.2(3)
C30 N3 C31 117.6(3)
C30 N3 Ru1 130.6(3)
C31 N3 Ru1 111.7(2)
N1 C1 N2 106.0(3)
N1 C1 Ru1 130.6(3)
N2 C1 Ru1 122.9(3)
N1 C2 C3 102.8(3)
N1 C2 H2A 111.2
C3 C2 H2A 111.2
N1 C2 H2B 111.2
C3 C2 H2B 111.2
H2A C2 H2B 109.1
N2 C3 C2 102.5(3)
N2 C3 H3A 111.3
C2 C3 H3A 111.3
N2 C3 H3B 111.3
C2 C3 H3B 111.3
H3A C3 H3B 109.2
C5 C4 C9 117.7(4)
C5 C4 C10 121.3(4)
C9 C4 C10 121.0(4)
C6 C5 C4 121.7(4)
C6 C5 H22 119.2
C4 C5 H22 119.2
C7 C6 C5 118.4(4)
C7 C6 C11 121.0(4)
C5 C6 C11 120.5(4)
C8 C7 C6 122.5(4)
C8 C7 H48 118.7
C6 C7 H48 118.7
C7 C8 C9 117.4(4)
C7 C8 C12 120.6(4)
C9 C8 C12 122.0(4)
C8 C9 C4 122.2(4)
C8 C9 N1 119.0(4)
C4 C9 N1 118.7(4)
C4 C10 H44A 109.5
C4 C10 H44B 109.5
H44A C10 H44B 109.5
C4 C10 H44C 109.5
H44A C10 H44C 109.5
H44B C10 H44C 109.5
C6 C11 H67A 109.5
C6 C11 H67B 109.5
H67A C11 H67B 109.5
C6 C11 H67C 109.5
H67A C11 H67C 109.5
H67B C11 H67C 109.5
C8 C12 H65A 109.5
C8 C12 H65B 109.5
H65A C12 H65B 109.5
C8 C12 H65C 109.5
H65A C12 H65C 109.5
H65B C12 H65C 109.5
C18 C13 C14 121.3(4)
C18 C13 N2 119.1(4)
C14 C13 N2 118.6(4)
C15 C14 C13 118.1(5)
C15 C14 C19 120.7(6)
C13 C14 C19 121.1(5)
C16 C15 C14 120.9(6)
C16 C15 H15 119.5
C14 C15 H15 119.5
C15 C16 C17 121.4(6)
C15 C16 C20 118.6(7)
C17 C16 C20 120.0(7)
C16 C17 C18 120.0(6)
C16 C17 H17 120.0
C18 C17 H17 120.0
C13 C18 C17 118.1(5)
C13 C18 C21 123.2(4)
C17 C18 C21 118.6(5)
C14 C19 H19A 109.5
C14 C19 H19B 109.5
H19A C19 H19B 109.5
C14 C19 H19C 109.5
H19A C19 H19C 109.5
H19B C19 H19C 109.5
C16 C20 H20A 109.5
C16 C20 H20B 109.5
H20A C20 H20B 109.5
C16 C20 H20C 109.5
H20A C20 H20C 109.5
H20B C20 H20C 109.5
C18 C21 H21A 109.5
C18 C21 H21B 109.5
H21A C21 H21B 109.5
C18 C21 H21C 109.5
H21A C21 H21C 109.5
H21B C21 H21C 109.5
C23 C22 Ru1 118.5(3)
C23 C22 H22A 120.7
Ru1 C22 H22A 120.7
C24 C23 C31 118.4(3)
C24 C23 C22 127.1(4)
C31 C23 C22 114.4(3)
C23 C24 C25 120.2(4)
C23 C24 H30 119.9
C25 C24 H30 119.9
C26 C25 C24 121.1(4)
C26 C25 H42 119.5
C24 C25 H42 119.5
C25 C26 C27 121.1(3)
C25 C26 H29 119.5
C27 C26 H29 119.5
C28 C27 C31 116.6(3)
C28 C27 C26 126.1(3)
C31 C27 C26 117.3(4)
C29 C28 C27 119.2(3)
C29 C28 H38 120.4
C27 C28 H38 120.4
C28 C29 C30 120.5(4)
C28 C29 H45 119.8
C30 C29 H45 119.8
N3 C30 C29 122.5(4)
N3 C30 H37 118.8
C29 C30 H37 118.8
N3 C31 C27 123.7(3)
N3 C31 C23 114.5(3)
C27 C31 C23 121.9(3)
C6S C1S C2S 119.6(5)
C6S C1S H77 120.2
C2S C1S H77 120.2
C3S C2S C1S 119.5(6)
C3S C2S H74 120.3
C1S C2S H74 120.3
C4S C3S C2S 120.7(5)
C4S C3S H76 119.7
C2S C3S H76 119.7
C3S C4S C5S 119.9(5)
C3S C4S H75 120.0
C5S C4S H75 120.0
C4S C5S C6S 119.7(5)
C4S C5S H72 120.2
C6S C5S H72 120.2
C1S C6S C5S 120.6(5)
C1S C6S H73 119.7
C5S C6S H73 119.7
loop_
_geom_bond_atom_site_label_1
_geom_bond_atom_site_label_2
_geom_bond_distance
Ru1 C22 1.845(4)
Ru1 C1 2.063(4)
Ru1 N3 2.162(3)
Ru1 Cl2 2.3465(10)
Ru1 Cl1 2.3519(10)
N1 C1 1.356(5)
N1 C9 1.439(5)
N1 C2 1.484(5)
N2 C1 1.365(4)
N2 C13 1.441(5)
N2 C3 1.478(5)
N3 C30 1.327(5)
N3 C31 1.369(4)
C2 C3 1.512(6)
C2 H2A 0.9900
C2 H2B 0.9900
C3 H3A 0.9900
C3 H3B 0.9900
C4 C5 1.395(5)
C4 C9 1.411(5)
C4 C10 1.514(6)
C5 C6 1.395(6)
C5 H22 0.9500
C6 C7 1.393(6)
C6 C11 1.516(6)
C7 C8 1.390(6)
C7 H48 0.9500
C8 C9 1.398(6)
C8 C12 1.519(6)
C10 H44A 0.9800
C10 H44B 0.9800
C10 H44C 0.9800
C11 H67A 0.9800
C11 H67B 0.9800
C11 H67C 0.9800
C12 H65A 0.9800
C12 H65B 0.9800
C12 H65C 0.9800
C13 C18 1.391(6)
C13 C14 1.407(7)
C14 C15 1.404(8)
C14 C19 1.498(8)
C15 C16 1.359(9)
C15 H15 0.9500
C16 C17 1.370(9)
C16 C20 1.558(8)
C17 C18 1.424(7)
C17 H17 0.9500
C18 C21 1.497(7)
C19 H19A 0.9800
C19 H19B 0.9800
C19 H19C 0.9800
C20 H20A 0.9800
C20 H20B 0.9800
C20 H20C 0.9800
C21 H21A 0.9800
C21 H21B 0.9800
C21 H21C 0.9800
C22 C23 1.464(5)
C22 H22A 0.9500
C23 C24 1.384(5)
C23 C31 1.428(5)
C24 C25 1.421(5)
C24 H30 0.9500
C25 C26 1.370(6)
C25 H42 0.9500
C26 C27 1.421(5)
C26 H29 0.9500
C27 C28 1.414(6)
C27 C31 1.419(5)
C28 C29 1.369(6)
C28 H38 0.9500
C29 C30 1.407(5)
C29 H45 0.9500
C30 H37 0.9500
C1S C6S 1.366(8)
C1S C2S 1.388(7)
C1S H77 0.9500
C2S C3S 1.375(8)
C2S H74 0.9500
C3S C4S 1.365(7)
C3S H76 0.9500
C4S C5S 1.377(7)
C4S H75 0.9500
C5S C6S 1.378(7)
C5S H72 0.9500
C6S H73 0.9500
loop_
_geom_torsion_atom_site_label_1
_geom_torsion_atom_site_label_2
_geom_torsion_atom_site_label_3
_geom_torsion_atom_site_label_4
_geom_torsion
C22 Ru1 N3 C30 -177.6(4)
C1 Ru1 N3 C30 56(2)
Cl2 Ru1 N3 C30 82.3(3)
Cl1 Ru1 N3 C30 -73.9(3)
C22 Ru1 N3 C31 4.4(2)
C1 Ru1 N3 C31 -122(2)
Cl2 Ru1 N3 C31 -95.7(2)
Cl1 Ru1 N3 C31 108.0(2)
C9 N1 C1 N2 -170.1(4)
C2 N1 C1 N2 -3.5(5)
C9 N1 C1 Ru1 17.7(6)
C2 N1 C1 Ru1 -175.7(3)
C13 N2 C1 N1 179.8(4)
C3 N2 C1 N1 -3.3(5)
C13 N2 C1 Ru1 -7.2(6)
C3 N2 C1 Ru1 169.7(3)
C22 Ru1 C1 N1 -13.0(4)
N3 Ru1 C1 N1 113(2)
Cl2 Ru1 C1 N1 86.5(4)
Cl1 Ru1 C1 N1 -117.4(4)
C22 Ru1 C1 N2 175.9(3)
N3 Ru1 C1 N2 -58(2)
Cl2 Ru1 C1 N2 -84.6(3)
Cl1 Ru1 C1 N2 71.5(3)
C1 N1 C2 C3 8.4(5)
C9 N1 C2 C3 176.7(4)
C1 N2 C3 C2 8.3(5)
C13 N2 C3 C2 -174.3(4)
N1 C2 C3 N2 -9.2(5)
C9 C4 C5 C6 0.2(5)
C10 C4 C5 C6 -177.3(4)
C4 C5 C6 C7 0.7(6)
C4 C5 C6 C11 -178.4(4)
C5 C6 C7 C8 -2.4(6)
C11 C6 C7 C8 176.8(4)
C6 C7 C8 C9 3.0(6)
C6 C7 C8 C12 -176.2(4)
C7 C8 C9 C4 -2.0(5)
C12 C8 C9 C4 177.2(3)
C7 C8 C9 N1 -177.4(3)
C12 C8 C9 N1 1.7(5)
C5 C4 C9 C8 0.5(5)
C10 C4 C9 C8 178.0(3)
C5 C4 C9 N1 175.9(3)
C10 C4 C9 N1 -6.6(5)
C1 N1 C9 C8 -107.7(5)
C2 N1 C9 C8 86.0(5)
C1 N1 C9 C4 76.7(5)
C2 N1 C9 C4 -89.6(4)
C1 N2 C13 C18 97.2(5)
C3 N2 C13 C18 -79.7(5)
C1 N2 C13 C14 -94.7(5)
C3 N2 C13 C14 88.5(5)
C18 C13 C14 C15 -5.7(6)
N2 C13 C14 C15 -173.5(4)
C18 C13 C14 C19 171.0(4)
N2 C13 C14 C19 3.1(6)
C13 C14 C15 C16 1.4(7)
C19 C14 C15 C16 -175.2(5)
C14 C15 C16 C17 2.0(8)
C14 C15 C16 C20 -179.8(4)
C15 C16 C17 C18 -1.3(7)
C20 C16 C17 C18 -179.5(4)
C14 C13 C18 C17 6.3(6)
N2 C13 C18 C17 174.1(3)
C14 C13 C18 C21 -169.8(4)
N2 C13 C18 C21 -2.0(6)
C16 C17 C18 C13 -2.8(6)
C16 C17 C18 C21 173.5(4)
C1 Ru1 C22 C23 172.2(3)
N3 Ru1 C22 C23 -4.9(3)
Cl2 Ru1 C22 C23 80.5(3)
Cl1 Ru1 C22 C23 -89.2(3)
Ru1 C22 C23 C24 -176.5(3)
Ru1 C22 C23 C31 4.8(4)
C31 C23 C24 C25 -1.8(5)
C22 C23 C24 C25 179.6(3)
C23 C24 C25 C26 1.5(6)
C24 C25 C26 C27 0.5(6)
C25 C26 C27 C28 178.9(4)
C25 C26 C27 C31 -2.0(6)
C31 C27 C28 C29 0.5(5)
C26 C27 C28 C29 179.6(4)
C27 C28 C29 C30 -1.1(6)
C31 N3 C30 C29 0.3(6)
Ru1 N3 C30 C29 -177.7(3)
C28 C29 C30 N3 0.8(6)
C30 N3 C31 C27 -0.9(5)
Ru1 N3 C31 C27 177.4(3)
C30 N3 C31 C23 178.7(3)
Ru1 N3 C31 C23 -2.9(4)
C28 C27 C31 N3 0.5(5)
C26 C27 C31 N3 -178.7(3)
C28 C27 C31 C23 -179.1(3)
C26 C27 C31 C23 1.7(5)
C24 C23 C31 N3 -179.5(3)
C22 C23 C31 N3 -0.7(4)
C24 C23 C31 C27 0.2(5)
C22 C23 C31 C27 179.0(3)
C6S C1S C2S C3S 0.1(9)
C1S C2S C3S C4S 0.0(8)
C2S C3S C4S C5S -0.3(8)
C3S C4S C5S C6S 0.6(7)
C2S C1S C6S C5S 0.2(8)
C4S C5S C6S C1S -0.5(8)
#------------------------------------------------------------------------------
#$Date: 2016-03-21 10:13:12 +0200 (Mon, 21 Mar 2016) $
#$Revision: 178640 $
#$URL: svn://www.crystallography.net/cod/cif/4/07/51/4075180.cif $
#------------------------------------------------------------------------------
#
# This file is available in the Crystallography Open Database (COD),
# http://www.crystallography.net/
#
# All data on this site have been placed in the public domain by the
# contributors.
#
data_4075180
loop_
_publ_author_name
'Barbasiewicz, Micha\/l'
'Szadkowska, Anna'
'Bujok, Robert'
'Grela, Karol'
_publ_section_title
;
 Structure and Activity Peculiarities of Ruthenium Quinoline and
 Quinoxaline Complexes:&#x00A0; Novel Metathesis Catalysts
;
_journal_issue                   15
_journal_name_full               Organometallics
_journal_page_first              3599
_journal_paper_doi               10.1021/om060091u
_journal_volume                  25
_journal_year                    2006
_chemical_formula_moiety         'C31 H33 Cl2 N3 Ru'
_chemical_formula_sum            'C31 H33 Cl2 N3 Ru'
_chemical_formula_weight         619.57
_chemical_name_systematic
;
 ?
;
_space_group_IT_number           15
_symmetry_cell_setting           monoclinic
_symmetry_Int_Tables_number      15
_symmetry_space_group_name_Hall  '-C 2yc'
_symmetry_space_group_name_H-M   'C 1 2/c 1'
_atom_sites_solution_hydrogens   geom
_atom_sites_solution_primary     direct
_atom_sites_solution_secondary   difmap
_audit_creation_method           SHELXL-97
_cell_angle_alpha                90.00
_cell_angle_beta                 123.864(2)
_cell_angle_gamma                90.00
_cell_formula_units_Z            8
_cell_length_a                   28.1947(2)
_cell_length_b                   17.6289(6)
_cell_length_c                   16.2675(9)
_cell_measurement_reflns_used    5241
_cell_measurement_temperature    100(2)
_cell_measurement_theta_max      26.02
_cell_measurement_theta_min      1.00
_cell_volume                     6714.0(5)
_computing_cell_refinement       'Denzo & Scalepak (Otwinowski, Minor, 1997)'
_computing_data_collection       'Collect (Nonius B.V. 1998)'
_computing_data_reduction        'Denzo & Scalepak (Otwinowski, Minor, 1997)'
_computing_structure_refinement  'SHELXL-97 (Sheldrick, 1997)'
_computing_structure_solution    'SHELXS-97 (Sheldrick, 1990)'
_diffrn_ambient_temperature      100(2)
_diffrn_measured_fraction_theta_full 0.997
_diffrn_measured_fraction_theta_max 0.997
_diffrn_measurement_details
;
   91 frames, \w rotation 2.0\% per frame (160s per frame)
;
_diffrn_measurement_device       '\k-geometry diffractometr'
_diffrn_measurement_device_type  'Nonius Kappa-CCD'
_diffrn_measurement_method       'area detector \w scans'
_diffrn_radiation_monochromator  graphite
_diffrn_radiation_source         'fine-focus sealed tube'
_diffrn_radiation_type           MoK\a
_diffrn_radiation_wavelength     0.71073
_diffrn_reflns_av_R_equivalents  0.0318
_diffrn_reflns_av_sigmaI/netI    0.0628
_diffrn_reflns_limit_h_max       30
_diffrn_reflns_limit_h_min       -30
_diffrn_reflns_limit_k_max       19
_diffrn_reflns_limit_k_min       -17
_diffrn_reflns_limit_l_max       17
_diffrn_reflns_limit_l_min       -17
_diffrn_reflns_number            8439
_diffrn_reflns_theta_full        23.00
_diffrn_reflns_theta_max         23.00
_diffrn_reflns_theta_min         2.41
_exptl_absorpt_coefficient_mu    0.647
_exptl_absorpt_correction_type   multi-scan
_exptl_absorpt_process_details   'Scalepak (Otwinowski, Minor, 1997)'
_exptl_crystal_colour            green
_exptl_crystal_density_diffrn    1.226
_exptl_crystal_density_method    'not measured'
_exptl_crystal_description       prism
_exptl_crystal_F_000             2544
_exptl_crystal_size_max          0.38
_exptl_crystal_size_mid          0.30
_exptl_crystal_size_min          0.20
_refine_diff_density_max         0.376
_refine_diff_density_min         -0.496
_refine_diff_density_rms         0.076
_refine_ls_extinction_method     none
_refine_ls_goodness_of_fit_ref   1.000
_refine_ls_hydrogen_treatment    mixed
_refine_ls_matrix_type           full
_refine_ls_number_parameters     334
_refine_ls_number_reflns         4663
_refine_ls_number_restraints     0
_refine_ls_restrained_S_all      1.000
_refine_ls_R_factor_all          0.0496
_refine_ls_R_factor_gt           0.0364
_refine_ls_shift/su_max          0.010
_refine_ls_shift/su_mean         0.001
_refine_ls_structure_factor_coef Fsqd
_refine_ls_weighting_details
'calc w=1/[\s^2^(Fo^2^)+(0.0488P)^2^+0.0000P] where P=(Fo^2^+2Fc^2^)/3'
_refine_ls_weighting_scheme      calc
_refine_ls_wR_factor_gt          0.0908
_refine_ls_wR_factor_ref         0.0942
_reflns_number_gt                3590
_reflns_number_total             4663
_reflns_threshold_expression     I>2\s(I)
_cod_data_source_file            om060091usi20060503_032955.cif
_cod_data_source_block           C0083
_cod_depositor_comments
;
The following automatic conversions were performed:

'_exptl_absorpt_correction_type' value 'multiscan' changed to
'multi-scan' according to
/home/saulius/struct/CIF-dictionaries/cif_core.dic dictionary named
'cif_core.dic' version 2.4.1 from 2010-06-29.

Automatic conversion script
Id: cif_fix_values 1715 2011-07-08 13:25:40Z adriana 
;
_cod_original_cell_volume        6713.9(6)
_cod_original_sg_symbol_H-M      'C 2/c'
_cod_database_code               4075180
loop_
_symmetry_equiv_pos_as_xyz
'x, y, z'
'-x, y, -z+1/2'
'x+1/2, y+1/2, z'
'-x+1/2, y+1/2, -z+1/2'
'-x, -y, -z'
'x, -y, z-1/2'
'-x+1/2, -y+1/2, -z'
'x+1/2, -y+1/2, z-1/2'
loop_
_atom_site_label
_atom_site_type_symbol
_atom_site_fract_x
_atom_site_fract_y
_atom_site_fract_z
_atom_site_U_iso_or_equiv
_atom_site_adp_type
_atom_site_occupancy
_atom_site_symmetry_multiplicity
_atom_site_calc_flag
_atom_site_refinement_flags
C1 C 0.21139(16) 0.0562(2) 0.8578(3) 0.0180(9) Uani 1 1 d .
C2 C 0.24821(18) 0.1259(2) 1.0051(3) 0.0217(10) Uani 1 1 d .
H2A H 0.2250 0.1429 1.0300 0.026 Uiso 1 1 calc R
H2B H 0.2818 0.1595 1.0320 0.026 Uiso 1 1 calc R
C3 C 0.26646(19) 0.0432(2) 1.0328(3) 0.0264(10) Uani 1 1 d .
H3A H 0.3086 0.0382 1.0729 0.032 Uiso 1 1 calc R
H3B H 0.2513 0.0213 1.0698 0.032 Uiso 1 1 calc R
C4 C 0.21457(17) 0.2436(2) 0.8175(3) 0.0202(10) Uani 1 1 d .
C5 C 0.18690(18) 0.3112(2) 0.7697(3) 0.0210(10) Uani 1 1 d .
H5 H 0.2056 0.3460 0.7522 0.025 Uiso 1 1 calc R
C6 C 0.13286(18) 0.3290(2) 0.7472(3) 0.0229(10) Uani 1 1 d .
C7 C 0.10620(17) 0.2777(2) 0.7739(3) 0.0222(10) Uani 1 1 d .
H7 H 0.0694 0.2898 0.7594 0.027 Uiso 1 1 calc R
C8 C 0.13150(17) 0.2091(2) 0.8214(3) 0.0198(9) Uani 1 1 d .
C9 C 0.18535(17) 0.19284(19) 0.8402(3) 0.0188(9) Uani 1 1 d .
C10 C 0.27408(17) 0.2261(2) 0.8450(3) 0.0237(10) Uani 1 1 d .
H10A H 0.2876 0.2677 0.8230 0.036 Uiso 1 1 calc R
H10B H 0.2736 0.1789 0.8128 0.036 Uiso 1 1 calc R
H10C H 0.2997 0.2206 0.9170 0.036 Uiso 1 1 calc R
C11 C 0.10271(19) 0.4020(2) 0.6940(3) 0.0325(11) Uani 1 1 d .
H11A H 0.1272 0.4313 0.6804 0.049 Uiso 1 1 calc R
H11B H 0.0949 0.4320 0.7359 0.049 Uiso 1 1 calc R
H11C H 0.0667 0.3899 0.6316 0.049 Uiso 1 1 calc R
C12 C 0.10108(18) 0.1559(2) 0.8489(3) 0.0238(10) Uani 1 1 d .
H12A H 0.0643 0.1779 0.8293 0.036 Uiso 1 1 calc R
H12B H 0.1244 0.1476 0.9207 0.036 Uiso 1 1 calc R
H12C H 0.0947 0.1074 0.8148 0.036 Uiso 1 1 calc R
C13 C 0.23080(18) -0.0744(2) 0.9178(3) 0.0220(10) Uani 1 1 d .
C14 C 0.27164(18) -0.1207(2) 0.9210(3) 0.0236(10) Uani 1 1 d .
C15 C 0.25788(19) -0.1973(2) 0.8973(3) 0.0241(10) Uani 1 1 d .
H15 H 0.2848 -0.2295 0.8969 0.029 Uiso 1 1 calc R
C16 C 0.20711(19) -0.2280(2) 0.8746(3) 0.0254(10) Uani 1 1 d .
C17 C 0.16953(19) -0.1807(2) 0.8813(3) 0.0255(10) Uani 1 1 d .
H17 H 0.1353 -0.2016 0.8700 0.031 Uiso 1 1 calc R
C18 C 0.18067(17) -0.1041(2) 0.9039(3) 0.0209(10) Uani 1 1 d .
C19 C 0.33019(18) -0.0911(2) 0.9554(3) 0.0289(11) Uani 1 1 d .
H19A H 0.3527 -0.1319 0.9521 0.043 Uiso 1 1 calc R
H19B H 0.3495 -0.0731 1.0238 0.043 Uiso 1 1 calc R
H19C H 0.3264 -0.0491 0.9126 0.043 Uiso 1 1 calc R
C20 C 0.1923(2) -0.3107(2) 0.8465(3) 0.0336(12) Uani 1 1 d .
H20A H 0.1545 -0.3213 0.8332 0.050 Uiso 1 1 calc R
H20B H 0.2209 -0.3428 0.9011 0.050 Uiso 1 1 calc R
H20C H 0.1920 -0.3215 0.7871 0.050 Uiso 1 1 calc R
C21 C 0.14105(18) -0.0564(2) 0.9173(3) 0.0250(10) Uani 1 1 d .
H21A H 0.1086 -0.0873 0.9042 0.038 Uiso 1 1 calc R
H21B H 0.1271 -0.0135 0.8711 0.038 Uiso 1 1 calc R
H21C H 0.1617 -0.0373 0.9854 0.038 Uiso 1 1 calc R
C22 C 0.15993(17) 0.1075(2) 0.6593(3) 0.0201(9) Uani 1 1 d .
H22 H 0.1869 0.1390 0.6581 0.024 Uiso 1 1 calc R
C23 C 0.10143(18) 0.1311(2) 0.6116(3) 0.0222(10) Uani 1 1 d .
C24 C 0.07473(18) 0.1962(2) 0.5583(3) 0.0249(10) Uani 1 1 d .
H24 H 0.0962 0.2328 0.5493 0.030 Uiso 1 1 calc R
C25 C 0.01652(18) 0.2094(2) 0.5170(3) 0.0297(11) Uani 1 1 d .
H25 H -0.0005 0.2552 0.4820 0.036 Uiso 1 1 calc R
C26 C -0.01602(19) 0.1569(2) 0.5267(3) 0.0254(10) Uani 1 1 d .
H26 H -0.0554 0.1666 0.4982 0.030 Uiso 1 1 calc R
C27 C 0.00892(17) 0.0880(2) 0.5794(3) 0.0235(10) Uani 1 1 d .
C28 C -0.02174(19) 0.0286(2) 0.5889(3) 0.0254(10) Uani 1 1 d .
H28 H -0.0613 0.0337 0.5627 0.030 Uiso 1 1 calc R
C29 C 0.00731(18) -0.0360(2) 0.6370(3) 0.0261(10) Uani 1 1 d .
H29 H -0.0125 -0.0768 0.6431 0.031 Uiso 1 1 calc R
C30 C 0.06572(17) -0.0431(2) 0.6772(3) 0.0210(10) Uani 1 1 d .
H30 H 0.0843 -0.0893 0.7089 0.025 Uiso 1 1 calc R
C31 C 0.06704(17) 0.0770(2) 0.6214(3) 0.0207(10) Uani 1 1 d .
N1 N 0.21374(14) 0.12496(16) 0.8947(2) 0.0208(8) Uani 1 1 d .
N2 N 0.24052(14) 0.00657(16) 0.9349(2) 0.0203(8) Uani 1 1 d .
N3 N 0.09616(13) 0.01243(16) 0.6728(2) 0.0175(7) Uani 1 1 d .
Cl1 Cl 0.27480(4) 0.02807(5) 0.75513(7) 0.0228(2) Uani 1 1 d .
Cl2 Cl 0.16346(4) -0.08732(5) 0.61438(7) 0.0230(3) Uani 1 1 d .
Ru1 Ru 0.181518(14) 0.015851(16) 0.72185(2) 0.01748(13) Uani 1 1 d .
loop_
_atom_site_aniso_label
_atom_site_aniso_U_11
_atom_site_aniso_U_22
_atom_site_aniso_U_33
_atom_site_aniso_U_23
_atom_site_aniso_U_13
_atom_site_aniso_U_12
C1 0.020(2) 0.018(2) 0.022(2) -0.0021(18) 0.015(2) -0.0038(17)
C2 0.030(3) 0.022(2) 0.017(2) -0.0049(17) 0.015(2) -0.0036(18)
C3 0.036(3) 0.027(2) 0.017(2) 0.0003(18) 0.015(2) 0.001(2)
C4 0.032(3) 0.017(2) 0.014(2) -0.0067(16) 0.014(2) -0.0056(18)
C5 0.032(3) 0.015(2) 0.020(2) -0.0024(17) 0.017(2) -0.0023(18)
C6 0.028(3) 0.020(2) 0.021(3) -0.0021(17) 0.014(2) -0.0004(19)
C7 0.022(2) 0.027(2) 0.020(2) -0.0006(18) 0.013(2) 0.0031(19)
C8 0.024(3) 0.020(2) 0.016(2) -0.0045(17) 0.011(2) -0.0047(18)
C9 0.025(3) 0.0121(19) 0.015(2) -0.0027(16) 0.009(2) -0.0018(17)
C10 0.028(3) 0.019(2) 0.027(3) -0.0035(17) 0.017(2) -0.0016(18)
C11 0.032(3) 0.028(2) 0.038(3) 0.008(2) 0.020(3) 0.005(2)
C12 0.029(3) 0.022(2) 0.025(3) 0.0008(18) 0.018(2) -0.0006(18)
C13 0.029(3) 0.023(2) 0.015(2) 0.0018(17) 0.013(2) 0.0034(19)
C14 0.034(3) 0.026(2) 0.016(2) 0.0037(17) 0.017(2) 0.004(2)
C15 0.034(3) 0.022(2) 0.021(3) 0.0043(18) 0.018(2) 0.008(2)
C16 0.040(3) 0.023(2) 0.017(2) 0.0036(17) 0.019(2) 0.008(2)
C17 0.028(3) 0.031(2) 0.020(3) 0.0027(18) 0.014(2) -0.001(2)
C18 0.027(3) 0.019(2) 0.019(2) 0.0023(17) 0.014(2) 0.0030(18)
C19 0.031(3) 0.029(2) 0.031(3) 0.0032(19) 0.019(2) 0.004(2)
C20 0.054(3) 0.026(2) 0.032(3) -0.0009(19) 0.030(3) -0.002(2)
C21 0.027(3) 0.030(2) 0.020(3) -0.0013(18) 0.014(2) 0.0019(19)
C22 0.024(3) 0.021(2) 0.020(2) -0.0079(17) 0.015(2) -0.0057(18)
C23 0.029(3) 0.023(2) 0.016(2) -0.0007(17) 0.014(2) -0.0016(19)
C24 0.028(3) 0.026(2) 0.020(3) 0.0001(18) 0.012(2) 0.0008(19)
C25 0.029(3) 0.025(2) 0.028(3) -0.0021(19) 0.011(2) 0.000(2)
C26 0.025(3) 0.026(2) 0.023(3) -0.0026(18) 0.012(2) 0.007(2)
C27 0.019(3) 0.035(2) 0.017(2) -0.0041(18) 0.010(2) -0.0017(19)
C28 0.024(2) 0.037(3) 0.019(2) -0.0013(19) 0.014(2) 0.002(2)
C29 0.030(3) 0.031(2) 0.022(3) -0.0056(19) 0.018(2) -0.011(2)
C30 0.027(3) 0.021(2) 0.018(2) -0.0017(17) 0.014(2) -0.0016(19)
C31 0.025(3) 0.030(2) 0.010(2) -0.0039(17) 0.011(2) -0.0025(19)
N1 0.025(2) 0.0203(18) 0.016(2) -0.0018(14) 0.0110(17) 0.0001(15)
N2 0.026(2) 0.0186(17) 0.0187(19) -0.0010(14) 0.0138(17) 0.0012(15)
N3 0.0207(19) 0.0183(17) 0.0129(18) 0.0002(14) 0.0090(16) 0.0008(15)
Cl1 0.0212(6) 0.0271(5) 0.0227(6) -0.0032(4) 0.0139(5) -0.0019(4)
Cl2 0.0240(6) 0.0234(5) 0.0220(6) -0.0045(4) 0.0130(5) -0.0005(4)
Ru1 0.0194(2) 0.01880(19) 0.0160(2) -0.00118(13) 0.01095(16) -0.00032(14)
loop_
_atom_type_symbol
_atom_type_description
_atom_type_scat_dispersion_real
_atom_type_scat_dispersion_imag
_atom_type_scat_source
C C 0.0033 0.0016 'International Tables Vol C Tables 4.2.6.8 and 6.1.1.4'
H H 0.0000 0.0000 'International Tables Vol C Tables 4.2.6.8 and 6.1.1.4'
N N 0.0061 0.0033 'International Tables Vol C Tables 4.2.6.8 and 6.1.1.4'
Cl Cl 0.1484 0.1585 'International Tables Vol C Tables 4.2.6.8 and 6.1.1.4'
Ru Ru -1.2594 0.8363 'International Tables Vol C Tables 4.2.6.8 and 6.1.1.4'
loop_
_geom_angle_atom_site_label_1
_geom_angle_atom_site_label_2
_geom_angle_atom_site_label_3
_geom_angle
N1 C1 N2 108.4(3)
N1 C1 Ru1 134.5(3)
N2 C1 Ru1 116.9(2)
N1 C2 C3 103.4(3)
N1 C2 H2A 111.1
C3 C2 H2A 111.1
N1 C2 H2B 111.1
C3 C2 H2B 111.1
H2A C2 H2B 109.0
N2 C3 C2 102.4(3)
N2 C3 H3A 111.3
C2 C3 H3A 111.3
N2 C3 H3B 111.3
C2 C3 H3B 111.3
H3A C3 H3B 109.2
C5 C4 C9 117.6(4)
C5 C4 C10 121.5(3)
C9 C4 C10 120.8(3)
C6 C5 C4 121.9(4)
C6 C5 H5 119.0
C4 C5 H5 119.0
C5 C6 C7 118.4(4)
C5 C6 C11 121.7(4)
C7 C6 C11 120.0(4)
C6 C7 C8 122.4(4)
C6 C7 H7 118.8
C8 C7 H7 118.8
C7 C8 C9 117.1(3)
C7 C8 C12 120.4(4)
C9 C8 C12 122.5(3)
C4 C9 C8 122.5(3)
C4 C9 N1 119.2(4)
C8 C9 N1 118.0(3)
C4 C10 H10A 109.5
C4 C10 H10B 109.5
H10A C10 H10B 109.5
C4 C10 H10C 109.5
H10A C10 H10C 109.5
H10B C10 H10C 109.5
C6 C11 H11A 109.5
C6 C11 H11B 109.5
H11A C11 H11B 109.5
C6 C11 H11C 109.5
H11A C11 H11C 109.5
H11B C11 H11C 109.5
C8 C12 H12A 109.5
C8 C12 H12B 109.5
H12A C12 H12B 109.5
C8 C12 H12C 109.5
H12A C12 H12C 109.5
H12B C12 H12C 109.5
C14 C13 C18 121.8(3)
C14 C13 N2 120.4(4)
C18 C13 N2 117.7(3)
C13 C14 C15 117.4(4)
C13 C14 C19 121.6(3)
C15 C14 C19 120.9(4)
C16 C15 C14 122.8(4)
C16 C15 H15 118.6
C14 C15 H15 118.6
C15 C16 C17 117.7(4)
C15 C16 C20 122.1(4)
C17 C16 C20 120.2(4)
C18 C17 C16 122.1(4)
C18 C17 H17 119.0
C16 C17 H17 119.0
C17 C18 C13 117.7(4)
C17 C18 C21 120.3(4)
C13 C18 C21 122.0(3)
C14 C19 H19A 109.5
C14 C19 H19B 109.5
H19A C19 H19B 109.5
C14 C19 H19C 109.5
H19A C19 H19C 109.5
H19B C19 H19C 109.5
C16 C20 H20A 109.5
C16 C20 H20B 109.5
H20A C20 H20B 109.5
C16 C20 H20C 109.5
H20A C20 H20C 109.5
H20B C20 H20C 109.5
C18 C21 H21A 109.5
C18 C21 H21B 109.5
H21A C21 H21B 109.5
C18 C21 H21C 109.5
H21A C21 H21C 109.5
H21B C21 H21C 109.5
C23 C22 Ru1 118.9(3)
C23 C22 H22 120.5
Ru1 C22 H22 120.5
C24 C23 C31 117.2(4)
C24 C23 C22 129.7(4)
C31 C23 C22 113.0(3)
C23 C24 C25 121.4(4)
C23 C24 H24 119.3
C25 C24 H24 119.3
C26 C25 C24 120.8(4)
C26 C25 H25 119.6
C24 C25 H25 119.6
C25 C26 C27 120.4(4)
C25 C26 H26 119.8
C27 C26 H26 119.8
C31 C27 C28 117.7(4)
C31 C27 C26 117.7(4)
C28 C27 C26 124.6(4)
C29 C28 C27 118.0(4)
C29 C28 H28 121.0
C27 C28 H28 121.0
C28 C29 C30 121.1(4)
C28 C29 H29 119.4
C30 C29 H29 119.4
N3 C30 C29 122.4(4)
N3 C30 H30 118.8
C29 C30 H30 118.8
N3 C31 C27 123.5(4)
N3 C31 C23 114.0(3)
C27 C31 C23 122.5(4)
C1 N1 C9 127.3(3)
C1 N1 C2 112.7(3)
C9 N1 C2 119.9(3)
C1 N2 C13 120.2(3)
C1 N2 C3 113.1(3)
C13 N2 C3 124.2(3)
C30 N3 C31 117.1(3)
C30 N3 Ru1 130.3(3)
C31 N3 Ru1 112.4(2)
C22 Ru1 C1 96.08(15)
C22 Ru1 N3 81.73(15)
C1 Ru1 N3 96.82(13)
C22 Ru1 Cl2 113.56(12)
C1 Ru1 Cl2 150.36(11)
N3 Ru1 Cl2 88.15(8)
C22 Ru1 Cl1 91.69(13)
C1 Ru1 Cl1 89.16(11)
N3 Ru1 Cl1 171.52(9)
Cl2 Ru1 Cl1 89.61(3)
loop_
_geom_bond_atom_site_label_1
_geom_bond_atom_site_label_2
_geom_bond_distance
C1 N1 1.338(5)
C1 N2 1.365(5)
C1 Ru1 2.008(4)
C2 N1 1.491(5)
C2 C3 1.527(5)
C2 H2A 0.9900
C2 H2B 0.9900
C3 N2 1.480(5)
C3 H3A 0.9900
C3 H3B 0.9900
C4 C5 1.399(5)
C4 C9 1.399(5)
C4 C10 1.508(5)
C5 C6 1.390(6)
C5 H5 0.9500
C6 C7 1.392(5)
C6 C11 1.519(5)
C7 C8 1.397(5)
C7 H7 0.9500
C8 C9 1.401(6)
C8 C12 1.499(5)
C9 N1 1.438(5)
C10 H10A 0.9800
C10 H10B 0.9800
C10 H10C 0.9800
C11 H11A 0.9800
C11 H11B 0.9800
C11 H11C 0.9800
C12 H12A 0.9800
C12 H12B 0.9800
C12 H12C 0.9800
C13 C14 1.388(5)
C13 C18 1.402(5)
C13 N2 1.451(5)
C14 C15 1.399(5)
C14 C19 1.510(6)
C15 C16 1.374(6)
C15 H15 0.9500
C16 C17 1.400(6)
C16 C20 1.515(5)
C17 C18 1.389(5)
C17 H17 0.9500
C18 C21 1.508(5)
C19 H19A 0.9800
C19 H19B 0.9800
C19 H19C 0.9800
C20 H20A 0.9800
C20 H20B 0.9800
C20 H20C 0.9800
C21 H21A 0.9800
C21 H21B 0.9800
C21 H21C 0.9800
C22 C23 1.439(6)
C22 Ru1 1.823(4)
C22 H22 0.9500
C23 C24 1.381(5)
C23 C31 1.431(5)
C24 C25 1.404(6)
C24 H24 0.9500
C25 C26 1.372(6)
C25 H25 0.9500
C26 C27 1.426(6)
C26 H26 0.9500
C27 C31 1.393(6)
C27 C28 1.420(6)
C28 C29 1.366(6)
C28 H28 0.9500
C29 C30 1.398(6)
C29 H29 0.9500
C30 N3 1.330(5)
C30 H30 0.9500
C31 N3 1.380(5)
N3 Ru1 2.072(3)
Cl1 Ru1 2.3812(10)
Cl2 Ru1 2.3731(10)
#------------------------------------------------------------------------------
#$Date: 2016-03-22 10:40:54 +0200 (Tue, 22 Mar 2016) $
#$Revision: 178880 $
#$URL: svn://www.crystallography.net/cod/cif/4/11/09/4110988.cif $
#------------------------------------------------------------------------------
#
# This file is available in the Crystallography Open Database (COD),
# http://www.crystallography.net/
#
# All data on this site have been placed in the public domain by the
# contributors.
#
data_4110988
loop_
_publ_author_name
'Micha\/l Bieniek'
'Robert Bujok'
'Maciej Cabaj'
'No\"el Lugan'
'Guy Lavigne'
'Dieter Arlt'
'Karol Grela'
_publ_contact_author             'Lugan, N.'
_publ_contact_author_email       lugan@lcc-toulouse.fr
_publ_section_title
;
 Advanced Fine-Tuning of Grubbs/Hoveyda Olefin Metathesis Catalysts: A
 Further Step toward an Optimum Balance between Antinomic Properties
;
_journal_name_full               'Journal of the American Chemical Society'
_journal_page_first              13652
_journal_page_last               13653
_journal_paper_doi               10.1021/ja063186w
_journal_volume                  128
_journal_year                    2006
_chemical_formula_moiety         'C32 H38 Cl2 N2 O3 Ru, C4 H8 O2'
_chemical_formula_sum            'C36 H46 Cl2 N2 O5 Ru'
_chemical_formula_weight         758.72
_chemical_name_systematic
;
 ?
;
_space_group_crystal_system      monoclinic
_space_group_IT_number           14
_space_group_name_Hall           '-P 2ybc'
_space_group_name_H-M_alt        'P 1 21/c 1'
_symmetry_space_group_name_Hall  '-P 2ybc'
_symmetry_space_group_name_H-M   'P 1 21/c 1'
_atom_sites_solution_hydrogens   geom
_atom_sites_solution_primary     direct
_atom_sites_solution_secondary   difmap
_audit_creation_date             2005-08-31T14:37:42-00:00
_audit_creation_method           'WinGX routine CIF_UPDATE'
_cell_angle_alpha                90
_cell_angle_beta                 101.221(11)
_cell_angle_gamma                90
_cell_formula_units_Z            4
_cell_length_a                   13.6327(18)
_cell_length_b                   10.4005(13)
_cell_length_c                   26.417(3)
_cell_measurement_reflns_used    9999
_cell_measurement_temperature    180(2)
_cell_measurement_theta_max      32.21
_cell_measurement_theta_min      3.09
_cell_volume                     3674.0(8)
_computing_cell_refinement
;
        CrysAlis RED, Oxford Diffraction Ltd.,
        Version 1.170.32 (release 06.06.2003 CrysAlis170 VC++)
        (compiled Jun  6 2003,13:53:32)
;
_computing_data_collection
;
        CrysAlis CCD, Oxford Diffraction Ltd.,
        Version 1.170.32 (release 06.06.2003 CrysAlis170 VC++)
        (compiled Jun  6 2003,13:53:32)
;
_computing_data_reduction
;
        CrysAlis RED, Oxford Diffraction Ltd.,
        Version 1.170.32 (release 06.06.2003 CrysAlis170 VC++)
        (compiled Jun  6 2003,13:53:32)
;
_computing_molecular_graphics    'Ortep-3 for Windows (Farrugia, 1997)'
_computing_publication_material  'WinGX publication routines (Farrugia, 1999)'
_computing_structure_refinement  'SHELXL-97 (Sheldrick, 1997)'
_computing_structure_solution    'SHELXS-97 (Sheldrick, 1997)'
_diffrn_ambient_temperature      180(2)
_diffrn_measured_fraction_theta_full 0.939
_diffrn_measured_fraction_theta_max 0.939
_diffrn_measurement_device_type  'Oxford Diffraction Xcalibur'
_diffrn_measurement_method       \f
_diffrn_orient_matrix_UB_11      -0.0000704345
_diffrn_orient_matrix_UB_12      0.0542659321
_diffrn_orient_matrix_UB_13      -0.0162587819
_diffrn_orient_matrix_UB_21      0.0227944214
_diffrn_orient_matrix_UB_22      -0.0372477445
_diffrn_orient_matrix_UB_23      -0.0170196895
_diffrn_orient_matrix_UB_31      -0.047895478
_diffrn_orient_matrix_UB_32      -0.0178574684
_diffrn_orient_matrix_UB_33      -0.0139751632
_diffrn_radiation_monochromator  graphite
_diffrn_radiation_probe          x-ray
_diffrn_radiation_type           MoK\a
_diffrn_radiation_wavelength     0.71073
_diffrn_reflns_av_R_equivalents  0.1065
_diffrn_reflns_av_unetI/netI     0.2105
_diffrn_reflns_limit_h_max       18
_diffrn_reflns_limit_h_min       -20
_diffrn_reflns_limit_k_max       14
_diffrn_reflns_limit_k_min       -15
_diffrn_reflns_limit_l_max       37
_diffrn_reflns_limit_l_min       -39
_diffrn_reflns_number            37120
_diffrn_reflns_theta_full        32.21
_diffrn_reflns_theta_max         32.21
_diffrn_reflns_theta_min         3.09
_diffrn_standards_decay_%        0
_diffrn_standards_interval_count 0
_diffrn_standards_number         0
_exptl_absorpt_coefficient_mu    0.6140
_exptl_absorpt_correction_T_max  0.9590
_exptl_absorpt_correction_T_min  0.7805
_exptl_absorpt_correction_type   analytical
_exptl_absorpt_process_details
;
(see. N.W. Alcock (1970), Cryst. Computing, p. 271)
;
_exptl_crystal_colour            green
_exptl_crystal_density_diffrn    1.372
_exptl_crystal_description       needle
_exptl_crystal_F_000             1576
_exptl_crystal_size_max          0.340
_exptl_crystal_size_mid          0.164
_exptl_crystal_size_min          0.078
_refine_diff_density_max         0.669
_refine_diff_density_min         -0.669
_refine_diff_density_rms         0.101
_refine_ls_extinction_method     none
_refine_ls_goodness_of_fit_ref   0.82
_refine_ls_hydrogen_treatment    constr
_refine_ls_matrix_type           full
_refine_ls_number_parameters     435
_refine_ls_number_reflns         12202
_refine_ls_number_restraints     0
_refine_ls_restrained_S_all      0.82
_refine_ls_R_factor_all          0.155
_refine_ls_R_factor_gt           0.0544
_refine_ls_shift/su_max          0.001
_refine_ls_shift/su_mean         0
_refine_ls_structure_factor_coef Fsqd
_refine_ls_weighting_details
'calc w=1/[\s^2^(Fo^2^)+(0.0178P)^2^+0.0000P] where P=(Fo^2^+2Fc^2^)/3'
_refine_ls_weighting_scheme      calc
_refine_ls_wR_factor_gt          0.0806
_refine_ls_wR_factor_ref         0.1019
_reflns_number_gt                5221
_reflns_number_total             12202
_reflns_threshold_expression     >2sigma(I)
_cod_data_source_file            ja063186wsi20060506_072607.cif
_cod_data_source_block           mb041004
_cod_database_code               4110988
#BEGIN Tags that were not found in dictionaries:
_exptl_absorpt_correction_t_ave  0.9168
#END Tags that were not found in dictionaries
loop_
_space_group_symop_operation_xyz
'x, y, z'
'-x, y+1/2, -z+1/2'
'-x, -y, -z'
'x, -y-1/2, z-1/2'
loop_
_atom_site_label
_atom_site_type_symbol
_atom_site_fract_x
_atom_site_fract_y
_atom_site_fract_z
_atom_site_U_iso_or_equiv
_atom_site_adp_type
_atom_site_occupancy
_atom_site_symmetry_multiplicity
_atom_site_calc_flag
_atom_site_refinement_flags
_atom_site_disorder_assembly
_atom_site_disorder_group
C98 C 1.5382(6) -0.0098(9) 0.6166(4) 0.127(4) Uani 1 1 d . . .
O99 O 1.6463(4) -0.0283(7) 0.6481(2) 0.188(3) Uani 1 1 d . A .
C99 C 1.4865(8) 0.0525(13) 0.6435(6) 0.096(5) Uani 0.5 1 d P A 1
H99A H 1.5248 0.0643 0.6778 0.144 Uiso 0.5 1 calc PR A 1
H99B H 1.4267 0.0052 0.6452 0.144 Uiso 0.5 1 calc PR A 1
H99C H 1.469 0.1348 0.628 0.144 Uiso 0.5 1 calc PR A 1
C99' C 1.5103(10) 0.0826(13) 0.5839(6) 0.099(5) Uani 0.5 1 d P A 2
H99D H 1.564 0.1432 0.5855 0.148 Uiso 0.5 1 calc PR A 2
H99E H 1.4531 0.1253 0.5923 0.148 Uiso 0.5 1 calc PR A 2
H99F H 1.4931 0.0477 0.5496 0.148 Uiso 0.5 1 calc PR A 2
C1 C 0.9269(3) 0.3528(3) 0.33810(13) 0.0186(8) Uani 1 1 d . . .
C2 C 0.9535(3) 0.5709(3) 0.31754(15) 0.0282(9) Uani 1 1 d . . .
H2A H 0.9872 0.6019 0.2908 0.034 Uiso 1 1 calc R . .
H2B H 0.9578 0.6357 0.3443 0.034 Uiso 1 1 calc R . .
C3 C 0.8459(3) 0.5349(3) 0.29569(15) 0.0276(9) Uani 1 1 d . . .
H3A H 0.7998 0.5913 0.3088 0.033 Uiso 1 1 calc R . .
H3B H 0.8319 0.5387 0.2583 0.033 Uiso 1 1 calc R . .
C4 C 0.8494(3) 0.0932(3) 0.34716(13) 0.0235(9) Uani 1 1 d . . .
H4 H 0.8026 0.1224 0.3191 0.028 Uiso 1 1 calc R . .
C5 C 1.0936(3) -0.0307(3) 0.44610(14) 0.0252(9) Uani 1 1 d . . .
H5 H 1.0897 -0.0626 0.4806 0.03 Uiso 1 1 calc R . .
C6 C 1.1554(3) 0.0897(4) 0.45154(14) 0.0286(9) Uani 1 1 d . . .
C7 C 1.3179(3) 0.1722(5) 0.4787(2) 0.0624(15) Uani 1 1 d . . .
H7A H 1.3086 0.2183 0.4467 0.094 Uiso 1 1 calc R . .
H7B H 1.3854 0.1409 0.4872 0.094 Uiso 1 1 calc R . .
H7C H 1.3054 0.2285 0.5055 0.094 Uiso 1 1 calc R . .
C8 C 1.1349(3) -0.1377(4) 0.41620(17) 0.0413(12) Uani 1 1 d . . .
H8A H 1.0929 -0.2122 0.4146 0.062 Uiso 1 1 calc R . .
H8B H 1.2015 -0.1593 0.4334 0.062 Uiso 1 1 calc R . .
H8C H 1.1362 -0.1085 0.3818 0.062 Uiso 1 1 calc R . .
C11 C 0.7464(3) 0.3360(3) 0.29390(14) 0.0236(9) Uani 1 1 d . . .
C12 C 0.6689(3) 0.3444(3) 0.31966(15) 0.0292(10) Uani 1 1 d . . .
C13 C 0.5790(3) 0.2844(4) 0.29760(18) 0.0426(12) Uani 1 1 d . . .
H13 H 0.5252 0.2894 0.3144 0.051 Uiso 1 1 calc R . .
C14 C 0.5676(3) 0.2178(4) 0.2514(2) 0.0475(13) Uani 1 1 d . . .
C15 C 0.6477(3) 0.2126(4) 0.22719(16) 0.0414(12) Uani 1 1 d . . .
H15 H 0.6409 0.1683 0.1961 0.05 Uiso 1 1 calc R . .
C16 C 0.7391(3) 0.2711(4) 0.24732(15) 0.0301(10) Uani 1 1 d . . .
C17 C 0.6776(3) 0.4179(4) 0.36947(15) 0.0370(11) Uani 1 1 d . . .
H17A H 0.7309 0.3825 0.3948 0.055 Uiso 1 1 calc R . .
H17B H 0.6159 0.4116 0.3817 0.055 Uiso 1 1 calc R . .
H17C H 0.6915 0.5066 0.3637 0.055 Uiso 1 1 calc R . .
C18 C 0.4691(3) 0.1531(5) 0.2286(2) 0.0798(19) Uani 1 1 d . . .
H18A H 0.4161 0.1929 0.2421 0.12 Uiso 1 1 calc R . .
H18B H 0.4727 0.0635 0.2376 0.12 Uiso 1 1 calc R . .
H18C H 0.4562 0.1619 0.1918 0.12 Uiso 1 1 calc R . .
C19 C 0.8267(3) 0.2593(4) 0.21966(15) 0.0428(12) Uani 1 1 d . . .
H19A H 0.8052 0.2164 0.1872 0.064 Uiso 1 1 calc R . .
H19B H 0.8793 0.2106 0.2406 0.064 Uiso 1 1 calc R . .
H19C H 0.851 0.3435 0.2137 0.064 Uiso 1 1 calc R . .
C21 C 1.1012(3) 0.4427(3) 0.35907(14) 0.0241(9) Uani 1 1 d . . .
C22 C 1.1666(3) 0.4219(4) 0.32505(16) 0.0320(10) Uani 1 1 d . . .
C23 C 1.2683(3) 0.4311(4) 0.34449(19) 0.0464(12) Uani 1 1 d . . .
H23 H 1.3127 0.4128 0.3228 0.056 Uiso 1 1 calc R . .
C24 C 1.3059(3) 0.4660(5) 0.3943(2) 0.0499(13) Uani 1 1 d . . .
C25 C 1.2409(3) 0.4895(4) 0.42745(17) 0.0406(11) Uani 1 1 d . . .
H25 H 1.266 0.5129 0.4615 0.049 Uiso 1 1 calc R . .
C26 C 1.1369(3) 0.4783(3) 0.41005(15) 0.0260(9) Uani 1 1 d . . .
C27 C 1.1278(3) 0.3945(4) 0.26826(15) 0.0466(12) Uani 1 1 d . . .
H27A H 1.0981 0.471 0.2516 0.07 Uiso 1 1 calc R . .
H27B H 1.0784 0.3275 0.2648 0.07 Uiso 1 1 calc R . .
H27C H 1.1822 0.3676 0.2525 0.07 Uiso 1 1 calc R . .
C28 C 1.4188(3) 0.4788(6) 0.4134(2) 0.100(2) Uani 1 1 d . . .
H28A H 1.4317 0.5211 0.4463 0.15 Uiso 1 1 calc R . .
H28B H 1.4468 0.5285 0.389 0.15 Uiso 1 1 calc R . .
H28C H 1.4487 0.3949 0.4167 0.15 Uiso 1 1 calc R . .
C29 C 1.0684(3) 0.5047(4) 0.44729(14) 0.0324(10) Uani 1 1 d . . .
H29A H 1.0053 0.5356 0.4286 0.049 Uiso 1 1 calc R . .
H29B H 1.0981 0.5685 0.4718 0.049 Uiso 1 1 calc R . .
H29C H 1.0583 0.4269 0.4651 0.049 Uiso 1 1 calc R . .
C31 C 0.8389(3) -0.0304(3) 0.37149(13) 0.0217(8) Uani 1 1 d . . .
C32 C 0.7529(3) -0.1068(4) 0.35933(15) 0.0313(10) Uani 1 1 d . . .
H32 H 0.7002 -0.0803 0.3336 0.038 Uiso 1 1 calc R . .
C33 C 0.7454(3) -0.2208(4) 0.38507(16) 0.0351(11) Uani 1 1 d . . .
H33 H 0.6878 -0.2703 0.3766 0.042 Uiso 1 1 calc R . .
C34 C 0.8229(3) -0.2614(4) 0.42321(16) 0.0351(10) Uani 1 1 d . . .
H34 H 0.817 -0.338 0.4405 0.042 Uiso 1 1 calc R . .
C35 C 0.9106(3) -0.1885(4) 0.43632(14) 0.0280(8) Uani 1 1 d . . .
H35 H 0.9634 -0.2161 0.4618 0.034 Uiso 1 1 calc R . .
C36 C 0.9166(3) -0.0748(3) 0.41040(13) 0.0212(8) Uani 1 1 d . . .
C96 C 1.3828(4) -0.1901(6) 0.5280(2) 0.0878(19) Uani 1 1 d . A .
H96A H 1.423 -0.1517 0.506 0.132 Uiso 1 1 calc R . .
H96B H 1.3146 -0.1947 0.51 0.132 Uiso 1 1 calc R . .
H96C H 1.407 -0.2751 0.5374 0.132 Uiso 1 1 calc R . .
C97 C 1.3889(4) -0.1108(5) 0.5752(2) 0.0775(18) Uani 1 1 d . . .
H97A H 1.3478 -0.1475 0.5976 0.093 Uiso 1 1 calc R A .
H97B H 1.3661 -0.0239 0.5663 0.093 Uiso 1 1 calc R . .
N1 N 0.9953(2) 0.4470(3) 0.33881(11) 0.0217(7) Uani 1 1 d . . .
N2 N 0.8389(2) 0.4031(3) 0.31396(11) 0.0228(7) Uani 1 1 d . . .
O1 O 0.99540(17) 0.0094(2) 0.42025(9) 0.0256(6) Uani 1 1 d . . .
O2 O 1.12581(19) 0.1943(3) 0.43745(10) 0.0387(7) Uani 1 1 d . . .
O3 O 1.2488(2) 0.0640(3) 0.47370(12) 0.0515(9) Uani 1 1 d . . .
O98 O 1.4958(3) -0.1105(5) 0.60123(18) 0.1077(17) Uani 1 1 d . A .
Cl1 Cl 0.89326(7) 0.26017(9) 0.44594(3) 0.0282(2) Uani 1 1 d . . .
Cl2 Cl 1.06535(7) 0.11392(9) 0.32048(4) 0.0329(2) Uani 1 1 d . . .
Ru1 Ru 0.95928(2) 0.18733(3) 0.374910(12) 0.02079(8) Uani 1 1 d . . .
loop_
_atom_site_aniso_label
_atom_site_aniso_U_11
_atom_site_aniso_U_22
_atom_site_aniso_U_33
_atom_site_aniso_U_23
_atom_site_aniso_U_13
_atom_site_aniso_U_12
C98 0.054(5) 0.101(7) 0.215(11) -0.068(8) 0.003(6) -0.006(5)
O99 0.105(4) 0.250(8) 0.202(6) -0.040(6) 0.012(4) -0.020(4)
C99 0.034(7) 0.088(10) 0.157(15) -0.067(11) -0.002(8) -0.001(6)
C99' 0.071(9) 0.085(10) 0.131(14) 0.065(10) -0.006(9) -0.016(7)
C1 0.0201(19) 0.0179(19) 0.0188(19) -0.0048(15) 0.0063(15) -0.0017(15)
C2 0.032(2) 0.020(2) 0.031(2) 0.0051(18) 0.0022(18) 0.0011(17)
C3 0.033(2) 0.018(2) 0.031(2) 0.0075(18) 0.0044(19) 0.0010(17)
C4 0.027(2) 0.022(2) 0.019(2) 0.0068(16) -0.0002(16) 0.0013(16)
C5 0.023(2) 0.027(2) 0.025(2) 0.0058(18) 0.0018(17) 0.0043(17)
C6 0.027(2) 0.037(3) 0.020(2) 0.0027(19) -0.0002(18) 0.0025(19)
C7 0.035(3) 0.058(3) 0.089(4) -0.002(3) -0.003(3) -0.021(3)
C8 0.035(3) 0.039(3) 0.054(3) 0.016(2) 0.018(2) 0.013(2)
C11 0.021(2) 0.018(2) 0.029(2) 0.0038(17) -0.0003(17) 0.0001(16)
C12 0.026(2) 0.023(2) 0.036(2) 0.0043(18) -0.0030(19) 0.0025(17)
C13 0.024(2) 0.043(3) 0.058(3) 0.002(2) 0.002(2) 0.0019(19)
C14 0.038(3) 0.037(3) 0.059(3) 0.003(2) -0.013(2) -0.008(2)
C15 0.059(3) 0.026(3) 0.030(2) 0.0027(19) -0.014(2) -0.002(2)
C16 0.036(2) 0.019(2) 0.031(2) 0.0020(18) -0.0019(19) 0.0045(17)
C17 0.028(2) 0.039(3) 0.046(3) 0.002(2) 0.013(2) 0.0048(19)
C18 0.052(3) 0.081(5) 0.091(4) -0.016(4) -0.023(3) -0.022(3)
C19 0.063(3) 0.037(3) 0.029(2) 0.001(2) 0.011(2) 0.004(2)
C21 0.028(2) 0.019(2) 0.026(2) 0.0036(17) 0.0049(17) -0.0029(16)
C22 0.040(3) 0.025(2) 0.036(3) 0.0069(19) 0.019(2) 0.0031(19)
C23 0.036(3) 0.045(3) 0.065(4) 0.015(3) 0.026(2) 0.012(2)
C24 0.033(3) 0.046(3) 0.065(4) 0.014(3) -0.004(3) -0.001(2)
C25 0.037(3) 0.038(3) 0.040(3) 0.003(2) -0.006(2) 0.000(2)
C26 0.032(2) 0.016(2) 0.029(2) 0.0036(17) 0.0041(19) 0.0004(17)
C27 0.070(3) 0.042(3) 0.034(3) -0.001(2) 0.025(2) 0.002(2)
C28 0.025(3) 0.125(6) 0.144(6) 0.036(5) 0.002(3) 0.001(3)
C29 0.041(3) 0.027(2) 0.028(2) -0.0039(19) 0.004(2) -0.0021(19)
C31 0.025(2) 0.0184(19) 0.021(2) -0.0010(16) 0.0023(16) -0.0004(16)
C32 0.036(2) 0.023(2) 0.030(2) 0.0004(18) -0.0060(19) 0.0031(18)
C33 0.033(2) 0.022(2) 0.047(3) -0.002(2) 0.000(2) -0.0070(17)
C34 0.045(3) 0.020(2) 0.041(3) 0.0081(19) 0.010(2) -0.0033(19)
C35 0.034(2) 0.023(2) 0.027(2) 0.004(2) 0.0056(17) 0.004(2)
C36 0.025(2) 0.0184(19) 0.0185(19) 0.0013(16) 0.0012(16) 0.0009(16)
C96 0.074(4) 0.101(5) 0.084(5) 0.019(5) 0.004(3) 0.011(4)
C97 0.078(5) 0.067(4) 0.083(5) -0.012(4) 0.005(4) 0.011(3)
N1 0.0233(17) 0.0217(17) 0.0195(17) 0.0049(14) 0.0025(13) -0.0029(14)
N2 0.0254(18) 0.0156(16) 0.0274(18) 0.0063(14) 0.0053(14) -0.0010(13)
O1 0.0233(14) 0.0171(13) 0.0325(16) 0.0044(12) -0.0040(12) -0.0006(11)
O2 0.0385(17) 0.0342(17) 0.0417(18) 0.0028(16) 0.0039(13) -0.0018(15)
O3 0.0321(18) 0.048(2) 0.069(2) 0.0120(18) -0.0028(16) -0.0026(15)
O98 0.075(3) 0.101(4) 0.130(4) -0.017(3) -0.023(3) -0.012(3)
Cl1 0.0349(6) 0.0293(5) 0.0207(5) -0.0005(4) 0.0058(4) 0.0029(4)
Cl2 0.0406(6) 0.0327(6) 0.0281(6) -0.0002(5) 0.0132(5) 0.0068(5)
Ru1 0.02515(16) 0.01749(14) 0.01905(14) 0.00016(15) 0.00264(11) 0.00132(15)
loop_
_atom_type_symbol
_atom_type_description
_atom_type_scat_dispersion_real
_atom_type_scat_dispersion_imag
_atom_type_scat_source
C C 0.0033 0.0016 'International Tables Vol C Tables 4.2.6.8 and 6.1.1.4'
H H 0 0 'International Tables Vol C Tables 4.2.6.8 and 6.1.1.4'
N N 0.0061 0.0033 'International Tables Vol C Tables 4.2.6.8 and 6.1.1.4'
O O 0.0106 0.006 'International Tables Vol C Tables 4.2.6.8 and 6.1.1.4'
Cl Cl 0.1484 0.1585 'International Tables Vol C Tables 4.2.6.8 and 6.1.1.4'
Ru Ru -1.2594 0.8363 'International Tables Vol C Tables 4.2.6.8 and 6.1.1.4'
loop_
_exptl_crystal_face_index_h
_exptl_crystal_face_index_k
_exptl_crystal_face_index_l
_exptl_crystal_face_perp_dist
0 0 -1 0.039
0 0 1 0.039
1 1 1 0.17
-1 -1 -1 0.17
-1 0 -1 0.082
1 0 1 0.082
2 -1 2 0.141
loop_
_geom_angle_atom_site_label_1
_geom_angle_atom_site_label_2
_geom_angle_atom_site_label_3
_geom_angle
O98 C98 C99 110.1(10)
O98 C98 C99' 110.7(11)
C99 C98 C99' 82.7(10)
O98 C98 O99 114.0(7)
C99 C98 O99 109.5(10)
C99' C98 O99 124.9(10)
C98 C99 H99A 109.5
C98 C99 H99B 109.5
C98 C99 H99C 109.5
C98 C99' H99D 109.5
C98 C99' H99E 109.5
H99D C99' H99E 109.5
C98 C99' H99F 109.5
H99D C99' H99F 109.5
H99E C99' H99F 109.5
N2 C1 N1 105.9(3)
N2 C1 Ru1 131.4(3)
N1 C1 Ru1 122.3(2)
N1 C2 C3 101.7(3)
N1 C2 H2A 111.4
C3 C2 H2A 111.4
N1 C2 H2B 111.4
C3 C2 H2B 111.4
H2A C2 H2B 109.3
N2 C3 C2 103.0(3)
N2 C3 H3A 111.2
C2 C3 H3A 111.2
N2 C3 H3B 111.2
C2 C3 H3B 111.2
H3A C3 H3B 109.1
C31 C4 Ru1 116.1(2)
C31 C4 H4 121.9
Ru1 C4 H4 121.9
O1 C5 C6 104.8(3)
O1 C5 C8 111.5(3)
C6 C5 C8 113.6(3)
O1 C5 H5 108.9
C6 C5 H5 108.9
C8 C5 H5 108.9
O2 C6 O3 124.1(4)
O2 C6 C5 125.6(3)
O3 C6 C5 110.3(3)
O3 C7 H7A 109.5
O3 C7 H7B 109.5
H7A C7 H7B 109.5
O3 C7 H7C 109.5
H7A C7 H7C 109.5
H7B C7 H7C 109.5
C5 C8 H8A 109.5
C5 C8 H8B 109.5
H8A C8 H8B 109.5
C5 C8 H8C 109.5
H8A C8 H8C 109.5
H8B C8 H8C 109.5
C12 C11 C16 122.9(3)
C12 C11 N2 119.3(3)
C16 C11 N2 117.7(3)
C11 C12 C13 117.6(4)
C11 C12 C17 122.0(3)
C13 C12 C17 120.3(4)
C14 C13 C12 122.0(4)
C14 C13 H13 119
C12 C13 H13 119
C15 C14 C13 117.9(4)
C15 C14 C18 121.4(5)
C13 C14 C18 120.6(5)
C14 C15 C16 122.6(4)
C14 C15 H15 118.7
C16 C15 H15 118.7
C11 C16 C15 117.0(4)
C11 C16 C19 122.5(3)
C15 C16 C19 120.5(4)
C12 C17 H17A 109.5
C12 C17 H17B 109.5
H17A C17 H17B 109.5
C12 C17 H17C 109.5
H17A C17 H17C 109.5
H17B C17 H17C 109.5
C14 C18 H18A 109.5
C14 C18 H18B 109.5
H18A C18 H18B 109.5
C14 C18 H18C 109.5
H18A C18 H18C 109.5
H18B C18 H18C 109.5
C16 C19 H19A 109.5
C16 C19 H19B 109.5
H19A C19 H19B 109.5
C16 C19 H19C 109.5
H19A C19 H19C 109.5
H19B C19 H19C 109.5
C26 C21 C22 121.2(4)
C26 C21 N1 119.2(3)
C22 C21 N1 118.9(3)
C23 C22 C21 117.9(4)
C23 C22 C27 120.7(4)
C21 C22 C27 121.4(4)
C24 C23 C22 122.4(4)
C24 C23 H23 118.8
C22 C23 H23 118.8
C23 C24 C25 119.4(4)
C23 C24 C28 120.3(5)
C25 C24 C28 120.3(5)
C24 C25 C26 120.5(4)
C24 C25 H25 119.8
C26 C25 H25 119.8
C21 C26 C25 118.6(4)
C21 C26 C29 122.5(3)
C25 C26 C29 118.9(4)
C22 C27 H27A 109.5
C22 C27 H27B 109.5
H27A C27 H27B 109.5
C22 C27 H27C 109.5
H27A C27 H27C 109.5
H27B C27 H27C 109.5
C24 C28 H28A 109.5
C24 C28 H28B 109.5
H28A C28 H28B 109.5
C24 C28 H28C 109.5
H28A C28 H28C 109.5
H28B C28 H28C 109.5
C26 C29 H29A 109.5
C26 C29 H29B 109.5
H29A C29 H29B 109.5
C26 C29 H29C 109.5
H29A C29 H29C 109.5
H29B C29 H29C 109.5
C32 C31 C36 117.4(3)
C32 C31 C4 123.3(3)
C36 C31 C4 119.3(3)
C33 C32 C31 120.9(3)
C33 C32 H32 119.6
C31 C32 H32 119.6
C34 C33 C32 120.3(4)
C34 C33 H33 119.9
C32 C33 H33 119.9
C33 C34 C35 120.8(4)
C33 C34 H34 119.6
C35 C34 H34 119.6
C36 C35 C34 118.1(3)
C36 C35 H35 120.9
C34 C35 H35 120.9
O1 C36 C35 125.0(3)
O1 C36 C31 112.4(3)
C35 C36 C31 122.6(3)
C97 C96 H96A 109.5
C97 C96 H96B 109.5
H96A C96 H96B 109.5
C97 C96 H96C 109.5
H96A C96 H96C 109.5
H96B C96 H96C 109.5
C96 C97 O98 106.2(5)
C96 C97 H97A 110.5
O98 C97 H97A 110.5
C96 C97 H97B 110.5
O98 C97 H97B 110.5
H97A C97 H97B 108.7
C1 N1 C21 128.5(3)
C1 N1 C2 114.4(3)
C21 N1 C2 117.0(3)
C1 N2 C11 128.1(3)
C1 N2 C3 114.3(3)
C11 N2 C3 116.0(3)
C36 O1 C5 121.8(3)
C36 O1 Ru1 110.39(19)
C5 O1 Ru1 126.0(2)
C6 O3 C7 115.8(3)
C98 O98 C97 120.7(6)
C4 Ru1 C1 100.47(14)
C4 Ru1 O1 81.19(12)
C1 Ru1 O1 176.56(12)
C4 Ru1 Cl2 97.75(12)
C1 Ru1 Cl2 94.97(10)
O1 Ru1 Cl2 87.76(7)
C4 Ru1 Cl1 94.67(12)
C1 Ru1 Cl1 91.61(10)
O1 Ru1 Cl1 85.24(7)
Cl2 Ru1 Cl1 164.63(3)
loop_
_geom_bond_atom_site_label_1
_geom_bond_atom_site_label_2
_geom_bond_distance
C98 O98 1.227(7)
C98 C99 1.272(12)
C98 C99' 1.300(12)
C98 O99 1.557(8)
C99 H99A 0.96
C99 H99B 0.96
C99 H99C 0.96
C99' H99D 0.96
C99' H99E 0.96
C99' H99F 0.96
C1 N2 1.349(4)
C1 N1 1.351(4)
C1 Ru1 1.984(3)
C2 N1 1.475(4)
C2 C3 1.516(5)
C2 H2A 0.97
C2 H2B 0.97
C3 N2 1.463(4)
C3 H3A 0.97
C3 H3B 0.97
C4 C31 1.456(5)
C4 Ru1 1.820(3)
C4 H4 0.93
C5 O1 1.442(4)
C5 C6 1.500(5)
C5 C8 1.534(5)
C5 H5 0.98
C6 O2 1.194(4)
C6 O3 1.321(4)
C7 O3 1.457(5)
C7 H7A 0.96
C7 H7B 0.96
C7 H7C 0.96
C8 H8A 0.96
C8 H8B 0.96
C8 H8C 0.96
C11 C12 1.366(5)
C11 C16 1.390(5)
C11 N2 1.449(4)
C12 C13 1.397(5)
C12 C17 1.506(5)
C13 C14 1.385(6)
C13 H13 0.93
C14 C15 1.370(6)
C14 C18 1.518(5)
C15 C16 1.396(5)
C15 H15 0.93
C16 C19 1.522(5)
C17 H17A 0.96
C17 H17B 0.96
C17 H17C 0.96
C18 H18A 0.96
C18 H18B 0.96
C18 H18C 0.96
C19 H19A 0.96
C19 H19B 0.96
C19 H19C 0.96
C21 C26 1.390(5)
C21 C22 1.399(5)
C21 N1 1.439(4)
C22 C23 1.386(5)
C22 C27 1.518(5)
C23 C24 1.366(6)
C23 H23 0.93
C24 C25 1.383(6)
C24 C28 1.529(6)
C25 C26 1.408(5)
C25 H25 0.93
C26 C29 1.507(5)
C27 H27A 0.96
C27 H27B 0.96
C27 H27C 0.96
C28 H28A 0.96
C28 H28B 0.96
C28 H28C 0.96
C29 H29A 0.96
C29 H29B 0.96
C29 H29C 0.96
C31 C32 1.400(5)
C31 C36 1.403(4)
C32 C33 1.380(5)
C32 H32 0.93
C33 C34 1.377(5)
C33 H33 0.93
C34 C35 1.401(5)
C34 H34 0.93
C35 C36 1.377(5)
C35 H35 0.93
C36 O1 1.371(4)
C96 C97 1.484(7)
C96 H96A 0.96
C96 H96B 0.96
C96 H96C 0.96
C97 O98 1.486(6)
C97 H97A 0.97
C97 H97B 0.97
O1 Ru1 2.207(2)
Cl1 Ru1 2.3583(10)
Cl2 Ru1 2.3560(11)
#------------------------------------------------------------------------------
#$Date: 2016-02-18 17:37:37 +0200 (Thu, 18 Feb 2016) $
#$Revision: 176729 $
#$URL: svn://www.crystallography.net/cod/cif/1/50/47/1504708.cif $
#------------------------------------------------------------------------------
#
# This file is available in the Crystallography Open Database (COD),
# http://www.crystallography.net/
#
# All data on this site have been placed in the public domain by the
# contributors.
#
data_1504708
loop_
_publ_author_name
'Chung, Cheol K.'
'Grubbs, Robert H.'
_publ_section_title
;
 Olefin metathesis catalyst: stabilization effect of backbone
 substitutions of N-heterocyclic carbene.
;
_journal_issue                   13
_journal_name_full               'Organic letters'
_journal_page_first              2693
_journal_page_last               2696
_journal_paper_doi               10.1021/ol800824h
_journal_volume                  10
_journal_year                    2008
_chemical_formula_moiety         'C29 H34 Cl2 N2 O Ru, C6 H6'
_chemical_formula_sum            'C35 H40 Cl2 N2 O Ru'
_chemical_formula_weight         676.66
_chemical_name_systematic
;

 ?

;
_space_group_IT_number           2
_symmetry_cell_setting           triclinic
_symmetry_space_group_name_Hall  '-P 1'
_symmetry_space_group_name_H-M   'P -1'
_audit_creation_method           SHELXL-97
_cell_angle_alpha                78.5830(10)
_cell_angle_beta                 81.9420(10)
_cell_angle_gamma                88.4040(10)
_cell_formula_units_Z            2
_cell_length_a                   10.3243(4)
_cell_length_b                   12.2628(5)
_cell_length_c                   12.8923(5)
_cell_measurement_reflns_used    12191
_cell_measurement_temperature    100(2)
_cell_measurement_theta_max      35.12
_cell_measurement_theta_min      2.39
_cell_volume                     1584.13(11)
_computing_cell_refinement       'Bruker SAINT v6.45A'
_computing_data_collection       'Bruker SMART v5.630'
_computing_data_reduction        'Bruker SAINT v6.45A'
_computing_molecular_graphics    'Bruker XP v5.1'
_computing_publication_material  'Bruker XCIF v6.12'
_computing_structure_refinement  'Bruker XL v6.12'
_computing_structure_solution    'Bruker XS v6.12'
_diffrn_ambient_temperature      100(2)
_diffrn_measured_fraction_theta_full 0.938
_diffrn_measured_fraction_theta_max 0.885
_diffrn_measurement_device_type  'Bruker SMART 1000'
_diffrn_measurement_method       '\w scans at 7 \f settings'
_diffrn_radiation_monochromator  graphite
_diffrn_radiation_source         'fine-focus sealed tube'
_diffrn_radiation_type           MoK\a
_diffrn_radiation_wavelength     0.71073
_diffrn_reflns_av_R_equivalents  0.0950
_diffrn_reflns_av_sigmaI/netI    0.1095
_diffrn_reflns_limit_h_max       16
_diffrn_reflns_limit_h_min       -16
_diffrn_reflns_limit_k_max       20
_diffrn_reflns_limit_k_min       -19
_diffrn_reflns_limit_l_max       20
_diffrn_reflns_limit_l_min       -20
_diffrn_reflns_number            40231
_diffrn_reflns_theta_full        25.7
_diffrn_reflns_theta_max         36.06
_diffrn_reflns_theta_min         1.63
_exptl_absorpt_coefficient_mu    0.694
_exptl_absorpt_correction_T_max  0.9276
_exptl_absorpt_correction_T_min  0.9031
_exptl_absorpt_correction_type   none
_exptl_crystal_colour            Brown/green
_exptl_crystal_density_diffrn    1.419
_exptl_crystal_density_method    'not measured'
_exptl_crystal_description       Fragment
_exptl_crystal_F_000             700
_exptl_crystal_size_max          0.15
_exptl_crystal_size_mid          0.12
_exptl_crystal_size_min          0.11
_refine_diff_density_max         1.507
_refine_diff_density_min         -1.410
_refine_diff_density_rms         0.132
_refine_ls_extinction_method     none
_refine_ls_goodness_of_fit_ref   1.015
_refine_ls_number_parameters     376
_refine_ls_number_reflns         13346
_refine_ls_number_restraints     0
_refine_ls_restrained_S_all      1.015
_refine_ls_R_factor_all          0.0759
_refine_ls_R_factor_gt           0.0445
_refine_ls_shift/su_max          0.001
_refine_ls_shift/su_mean         0.000
_refine_ls_structure_factor_coef Fsqd
_refine_ls_weighting_details     w=1/s^2^(Fo^2^)
_refine_ls_weighting_scheme      sigma
_refine_ls_wR_factor_gt          0.0769
_refine_ls_wR_factor_ref         0.0829
_reflns_number_gt                8957
_reflns_number_total             13346
_reflns_threshold_expression     >2sigma(I)
_cod_data_source_file            ol800824h-file003.cif
_cod_data_source_block           13
_cod_depositor_comments
;
The following automatic conversions were performed:

'_symmetry_cell_setting' value 'Triclinic' changed to 'triclinic'
according to /home/saulius/struct/CIF-dictionaries/cif_core.dic
dictionary named 'cif_core.dic' version 2.4.1 from
2010-06-29.

'_refine_ls_weighting_scheme' value 'Sigma' changed to
'sigma' according to
/home/saulius/struct/CIF-dictionaries/cif_core.dic dictionary named
'cif_core.dic' version 2.4.1 from 2010-06-29.

Automatic conversion script
Id: cif_fix_values 1715 2011-07-08 13:25:40Z adriana 
;
_cod_original_sg_symbol_H-M      P-1
_cod_database_code               1504708
loop_
_symmetry_equiv_pos_as_xyz
'x, y, z'
'-x, -y, -z'
loop_
_atom_site_label
_atom_site_type_symbol
_atom_site_fract_x
_atom_site_fract_y
_atom_site_fract_z
_atom_site_U_iso_or_equiv
_atom_site_adp_type
_atom_site_occupancy
_atom_site_symmetry_multiplicity
_atom_site_calc_flag
_atom_site_refinement_flags
Ru1 Ru 0.532455(16) 0.722205(14) 0.740207(13) 0.00934(4) Uani 1 1 d .
Cl1 Cl 0.66593(5) 0.87860(4) 0.66581(4) 0.01456(10) Uani 1 1 d .
Cl2 Cl 0.33941(5) 0.62153(4) 0.80474(4) 0.01288(10) Uani 1 1 d .
O1 O 0.50310(14) 0.70716(12) 0.56948(11) 0.0133(3) Uani 1 1 d .
N1 N 0.47823(15) 0.77557(13) 0.95363(12) 0.0098(3) Uani 1 1 d .
N2 N 0.67317(15) 0.70253(13) 0.93454(13) 0.0101(3) Uani 1 1 d .
C1 C 0.56688(18) 0.73037(16) 0.88411(16) 0.0100(4) Uani 1 1 d .
C2 C 0.52036(19) 0.75841(16) 1.06316(15) 0.0106(4) Uani 1 1 d .
C3 C 0.66986(19) 0.75684(16) 1.02941(15) 0.0117(4) Uani 1 1 d .
C4 C 0.4753(2) 0.85193(17) 1.12193(17) 0.0155(4) Uani 1 1 d .
H4A H 0.4948 0.9239 1.0739 0.023 Uiso 1 1 calc R
H4B H 0.5212 0.8464 1.1843 0.023 Uiso 1 1 calc R
H4C H 0.3808 0.8457 1.1453 0.023 Uiso 1 1 calc R
C5 C 0.4690(2) 0.64545(17) 1.12831(16) 0.0150(4) Uani 1 1 d .
H5A H 0.3731 0.6455 1.1373 0.023 Uiso 1 1 calc R
H5B H 0.4988 0.6325 1.1986 0.023 Uiso 1 1 calc R
H5C H 0.5022 0.5862 1.0906 0.023 Uiso 1 1 calc R
C6 C 0.7291(2) 0.87303(17) 0.98852(17) 0.0146(4) Uani 1 1 d .
H6A H 0.8196 0.8665 0.9554 0.022 Uiso 1 1 calc R
H6B H 0.7275 0.9116 1.0484 0.022 Uiso 1 1 calc R
H6C H 0.6779 0.9154 0.9356 0.022 Uiso 1 1 calc R
C7 C 0.7462(2) 0.69205(18) 1.11456(16) 0.0163(4) Uani 1 1 d .
H7A H 0.7153 0.6149 1.1342 0.024 Uiso 1 1 calc R
H7B H 0.7330 0.7263 1.1778 0.024 Uiso 1 1 calc R
H7C H 0.8395 0.6933 1.0865 0.024 Uiso 1 1 calc R
C8 C 0.35934(19) 0.82659(16) 0.92633(15) 0.0108(4) Uani 1 1 d .
C9 C 0.3597(2) 0.90067(17) 0.82890(16) 0.0133(4) Uani 1 1 d .
H9 H 0.4396 0.9179 0.7826 0.016 Uiso 1 1 calc R
C10 C 0.2441(2) 0.94917(18) 0.79934(17) 0.0177(4) Uani 1 1 d .
H10 H 0.2451 0.9976 0.7319 0.021 Uiso 1 1 calc R
C11 C 0.1269(2) 0.92770(18) 0.86716(18) 0.0190(5) Uani 1 1 d .
H11 H 0.0478 0.9613 0.8469 0.023 Uiso 1 1 calc R
C12 C 0.1273(2) 0.8562(2) 0.96516(19) 0.0220(5) Uani 1 1 d .
H12 H 0.0480 0.8421 1.0129 0.026 Uiso 1 1 calc R
C13 C 0.2418(2) 0.80528(18) 0.99434(17) 0.0169(4) Uani 1 1 d .
H13 H 0.2401 0.7555 1.0611 0.020 Uiso 1 1 calc R
C14 C 0.78967(18) 0.64963(17) 0.89310(16) 0.0117(4) Uani 1 1 d .
C15 C 0.8800(2) 0.70926(18) 0.81284(17) 0.0163(4) Uani 1 1 d .
H15 H 0.8668 0.7860 0.7858 0.020 Uiso 1 1 calc R
C16 C 0.9900(2) 0.6542(2) 0.77308(19) 0.0231(5) Uani 1 1 d .
H16 H 1.0517 0.6936 0.7176 0.028 Uiso 1 1 calc R
C17 C 1.0107(2) 0.5432(2) 0.81308(19) 0.0223(5) Uani 1 1 d .
H17 H 1.0856 0.5065 0.7847 0.027 Uiso 1 1 calc R
C18 C 0.9219(2) 0.48526(18) 0.89487(18) 0.0175(4) Uani 1 1 d .
H18 H 0.9367 0.4091 0.9232 0.021 Uiso 1 1 calc R
C19 C 0.81111(19) 0.53870(17) 0.93542(16) 0.0128(4) Uani 1 1 d .
H19 H 0.7505 0.4994 0.9918 0.015 Uiso 1 1 calc R
C20 C 0.64305(19) 0.60834(16) 0.71728(16) 0.0117(4) Uani 1 1 d .
H20 H 0.6881 0.5702 0.7732 0.014 Uiso 1 1 calc R
C21 C 0.6625(2) 0.57569(16) 0.61379(16) 0.0126(4) Uani 1 1 d .
C22 C 0.7525(2) 0.49371(18) 0.58943(18) 0.0176(4) Uani 1 1 d .
H22 H 0.8031 0.4566 0.6420 0.021 Uiso 1 1 calc R
C23 C 0.7681(2) 0.46653(19) 0.48885(19) 0.0226(5) Uani 1 1 d .
H23 H 0.8301 0.4118 0.4720 0.027 Uiso 1 1 calc R
C24 C 0.6926(2) 0.51970(19) 0.41324(18) 0.0218(5) Uani 1 1 d .
H24 H 0.7023 0.4996 0.3451 0.026 Uiso 1 1 calc R
C25 C 0.6030(2) 0.60186(18) 0.43455(16) 0.0166(4) Uani 1 1 d .
H25 H 0.5526 0.6384 0.3816 0.020 Uiso 1 1 calc R
C26 C 0.5887(2) 0.62939(16) 0.53531(16) 0.0128(4) Uani 1 1 d .
C27 C 0.4331(2) 0.78051(18) 0.49043(16) 0.0168(4) Uani 1 1 d .
H27 H 0.3945 0.7348 0.4462 0.020 Uiso 1 1 calc R
C28 C 0.5274(2) 0.86483(19) 0.41845(18) 0.0227(5) Uani 1 1 d .
H28A H 0.5684 0.9072 0.4621 0.034 Uiso 1 1 calc R
H28B H 0.4796 0.9157 0.3685 0.034 Uiso 1 1 calc R
H28C H 0.5951 0.8260 0.3783 0.034 Uiso 1 1 calc R
C29 C 0.3246(2) 0.8338(2) 0.55441(18) 0.0229(5) Uani 1 1 d .
H29A H 0.2728 0.7758 0.6053 0.034 Uiso 1 1 calc R
H29B H 0.2683 0.8769 0.5061 0.034 Uiso 1 1 calc R
H29C H 0.3624 0.8832 0.5934 0.034 Uiso 1 1 calc R
C41 C 0.0376(3) 0.9421(2) 0.3627(2) 0.0303(6) Uani 1 1 d .
H41 H 0.0542 1.0175 0.3642 0.036 Uiso 1 1 calc R
C42 C 0.1178(3) 0.8881(2) 0.2962(2) 0.0375(7) Uani 1 1 d .
H42 H 0.1907 0.9261 0.2520 0.045 Uiso 1 1 calc R
C43 C 0.0945(3) 0.7798(3) 0.2922(2) 0.0464(8) Uani 1 1 d .
H43 H 0.1514 0.7430 0.2457 0.056 Uiso 1 1 calc R
C44 C -0.0112(3) 0.7242(2) 0.3557(3) 0.0443(8) Uani 1 1 d .
H44 H -0.0286 0.6495 0.3518 0.053 Uiso 1 1 calc R
C45 C -0.0924(3) 0.7775(2) 0.4256(2) 0.0387(7) Uani 1 1 d .
H45 H -0.1640 0.7392 0.4712 0.046 Uiso 1 1 calc R
C46 C -0.0673(3) 0.8872(2) 0.4277(2) 0.0316(6) Uani 1 1 d .
H46 H -0.1228 0.9249 0.4743 0.038 Uiso 1 1 calc R
loop_
_atom_site_aniso_label
_atom_site_aniso_U_11
_atom_site_aniso_U_22
_atom_site_aniso_U_33
_atom_site_aniso_U_23
_atom_site_aniso_U_13
_atom_site_aniso_U_12
Ru1 0.01079(7) 0.00962(7) 0.00743(7) -0.00124(6) -0.00103(5) -0.00103(5)
Cl1 0.0156(2) 0.0125(2) 0.0143(2) -0.00027(19) 0.00010(18) -0.00374(19)
Cl2 0.0133(2) 0.0136(2) 0.0117(2) -0.00259(18) -0.00069(17) -0.00380(18)
O1 0.0180(7) 0.0134(7) 0.0083(6) -0.0013(6) -0.0025(6) 0.0000(6)
N1 0.0106(7) 0.0131(8) 0.0065(7) -0.0034(6) -0.0022(6) 0.0013(6)
N2 0.0096(7) 0.0120(8) 0.0099(7) -0.0045(6) -0.0028(6) 0.0009(6)
C1 0.0095(8) 0.0073(8) 0.0123(9) -0.0001(7) -0.0008(7) -0.0020(7)
C2 0.0134(9) 0.0117(9) 0.0077(8) -0.0036(7) -0.0027(7) 0.0013(7)
C3 0.0120(9) 0.0129(9) 0.0108(9) -0.0029(8) -0.0031(7) 0.0014(8)
C4 0.0162(10) 0.0174(10) 0.0146(10) -0.0076(8) -0.0020(8) 0.0028(8)
C5 0.0163(10) 0.0139(10) 0.0134(10) 0.0011(8) -0.0019(8) -0.0010(8)
C6 0.0147(10) 0.0138(10) 0.0161(10) -0.0043(8) -0.0024(8) -0.0019(8)
C7 0.0179(10) 0.0186(10) 0.0135(10) -0.0032(8) -0.0072(8) 0.0040(8)
C8 0.0108(9) 0.0108(9) 0.0118(9) -0.0043(8) -0.0027(7) 0.0010(7)
C9 0.0144(9) 0.0141(10) 0.0122(9) -0.0042(8) -0.0026(8) 0.0033(8)
C10 0.0223(11) 0.0168(10) 0.0153(10) -0.0039(9) -0.0069(9) 0.0034(9)
C11 0.0122(10) 0.0200(11) 0.0267(12) -0.0053(10) -0.0090(9) 0.0040(8)
C12 0.0112(10) 0.0281(12) 0.0251(12) -0.0028(10) -0.0007(9) -0.0004(9)
C13 0.0137(10) 0.0201(11) 0.0151(10) -0.0004(9) -0.0007(8) 0.0005(8)
C14 0.0086(9) 0.0151(10) 0.0119(9) -0.0042(8) -0.0017(7) 0.0011(7)
C15 0.0142(10) 0.0153(10) 0.0188(10) -0.0033(9) -0.0003(8) -0.0008(8)
C16 0.0135(10) 0.0281(13) 0.0258(12) -0.0043(10) 0.0033(9) -0.0022(9)
C17 0.0108(10) 0.0310(13) 0.0264(12) -0.0103(11) -0.0015(9) 0.0063(9)
C18 0.0151(10) 0.0179(10) 0.0207(11) -0.0058(9) -0.0047(9) 0.0045(8)
C19 0.0129(9) 0.0149(10) 0.0114(9) -0.0039(8) -0.0033(7) 0.0019(8)
C20 0.0150(9) 0.0101(9) 0.0099(9) -0.0017(7) -0.0012(7) -0.0024(8)
C21 0.0148(9) 0.0102(9) 0.0118(9) -0.0024(8) 0.0027(8) -0.0043(8)
C22 0.0164(10) 0.0167(10) 0.0198(11) -0.0068(9) 0.0018(8) 0.0005(8)
C23 0.0244(12) 0.0209(11) 0.0235(12) -0.0126(10) 0.0050(9) -0.0008(9)
C24 0.0270(12) 0.0243(12) 0.0148(10) -0.0119(9) 0.0076(9) -0.0092(10)
C25 0.0235(11) 0.0173(10) 0.0088(9) -0.0035(8) 0.0019(8) -0.0074(9)
C26 0.0154(10) 0.0109(9) 0.0117(9) -0.0031(8) 0.0018(8) -0.0051(8)
C27 0.0198(11) 0.0193(11) 0.0099(9) 0.0019(8) -0.0044(8) -0.0009(9)
C28 0.0325(13) 0.0192(11) 0.0155(10) 0.0002(9) -0.0042(10) -0.0023(10)
C29 0.0253(12) 0.0263(12) 0.0166(11) -0.0021(10) -0.0057(9) 0.0061(10)
C41 0.0304(14) 0.0287(13) 0.0322(14) -0.0040(11) -0.0077(11) -0.0037(11)
C42 0.0288(14) 0.0350(15) 0.0363(15) 0.0111(12) 0.0124(12) 0.0026(12)
C43 0.055(2) 0.0402(17) 0.0351(16) -0.0058(14) 0.0178(14) 0.0150(15)
C44 0.0491(19) 0.0251(14) 0.059(2) -0.0108(14) -0.0040(16) -0.0018(13)
C45 0.0195(13) 0.0361(16) 0.0510(18) 0.0065(14) 0.0078(12) -0.0065(12)
C46 0.0290(14) 0.0392(16) 0.0251(13) -0.0077(12) 0.0023(11) 0.0039(12)
loop_
_atom_type_symbol
_atom_type_description
_atom_type_scat_dispersion_real
_atom_type_scat_dispersion_imag
_atom_type_scat_source
C C 0.0033 0.0016 'International Tables Vol C Tables 4.2.6.8 and 6.1.1.4'
H H 0.0000 0.0000 'International Tables Vol C Tables 4.2.6.8 and 6.1.1.4'
N N 0.0061 0.0033 'International Tables Vol C Tables 4.2.6.8 and 6.1.1.4'
O O 0.0106 0.0060 'International Tables Vol C Tables 4.2.6.8 and 6.1.1.4'
Cl Cl 0.1484 0.1585 'International Tables Vol C Tables 4.2.6.8 and 6.1.1.4'
Ru Ru -1.2594 0.8363 'International Tables Vol C Tables 4.2.6.8 and 6.1.1.4'
loop_
_geom_angle_atom_site_label_1
_geom_angle_atom_site_label_2
_geom_angle_atom_site_label_3
_geom_angle
_geom_angle_publ_flag
C20 Ru1 C1 98.53(8) yes
C20 Ru1 O1 78.37(7) yes
C1 Ru1 O1 176.72(7) yes
C20 Ru1 Cl2 99.49(6) yes
C1 Ru1 Cl2 92.76(6) yes
O1 Ru1 Cl2 88.85(4) yes
C20 Ru1 Cl1 101.71(6) yes
C1 Ru1 Cl1 90.98(6) yes
O1 Ru1 Cl1 88.61(4) yes
Cl2 Ru1 Cl1 157.668(19) yes
C26 O1 C27 118.66(15) ?
C26 O1 Ru1 109.48(11) ?
C27 O1 Ru1 130.35(12) ?
C1 N1 C8 123.76(16) ?
C1 N1 C2 111.34(15) ?
C8 N1 C2 124.83(15) ?
C1 N2 C14 125.94(16) ?
C1 N2 C3 111.33(15) ?
C14 N2 C3 121.36(15) ?
N2 C1 N1 106.23(16) ?
N2 C1 Ru1 131.74(14) ?
N1 C1 Ru1 121.95(14) ?
N1 C2 C4 112.66(16) ?
N1 C2 C5 109.07(16) ?
C4 C2 C5 110.83(16) ?
N1 C2 C3 98.48(14) ?
C4 C2 C3 113.27(17) ?
C5 C2 C3 111.94(16) ?
N2 C3 C7 112.76(16) ?
N2 C3 C6 107.12(16) ?
C7 C3 C6 109.62(17) ?
N2 C3 C2 99.04(15) ?
C7 C3 C2 114.45(17) ?
C6 C3 C2 113.28(16) ?
C13 C8 C9 118.84(18) ?
C13 C8 N1 121.79(18) ?
C9 C8 N1 119.37(17) ?
C10 C9 C8 120.32(19) ?
C9 C10 C11 120.8(2) ?
C12 C11 C10 118.8(2) ?
C13 C12 C11 120.9(2) ?
C12 C13 C8 120.4(2) ?
C19 C14 C15 120.73(18) ?
C19 C14 N2 118.70(17) ?
C15 C14 N2 120.56(18) ?
C16 C15 C14 118.7(2) ?
C17 C16 C15 120.9(2) ?
C16 C17 C18 119.9(2) ?
C17 C18 C19 120.0(2) ?
C14 C19 C18 119.62(19) ?
C21 C20 Ru1 120.21(15) ?
C26 C21 C22 119.00(18) ?
C26 C21 C20 118.30(18) ?
C22 C21 C20 122.69(19) ?
C23 C22 C21 120.3(2) ?
C24 C23 C22 119.6(2) ?
C23 C24 C25 121.6(2) ?
C24 C25 C26 118.5(2) ?
O1 C26 C25 125.62(19) ?
O1 C26 C21 113.34(17) ?
C25 C26 C21 121.03(19) ?
O1 C27 C29 105.82(16) ?
O1 C27 C28 109.74(17) ?
C29 C27 C28 112.83(19) ?
C42 C41 C46 119.9(3) ?
C41 C42 C43 120.8(3) ?
C42 C43 C44 120.0(3) ?
C43 C44 C45 119.8(3) ?
C46 C45 C44 119.1(2) ?
C41 C46 C45 120.4(2) ?
loop_
_geom_bond_atom_site_label_1
_geom_bond_atom_site_label_2
_geom_bond_distance
_geom_bond_publ_flag
Ru1 C20 1.822(2) yes
Ru1 C1 1.959(2) yes
Ru1 O1 2.3068(14) yes
Ru1 Cl2 2.3354(5) yes
Ru1 Cl1 2.3549(5) yes
O1 C26 1.376(2) ?
O1 C27 1.476(2) ?
N1 C1 1.374(2) ?
N1 C8 1.419(2) ?
N1 C2 1.509(2) ?
N2 C1 1.355(2) ?
N2 C14 1.438(2) ?
N2 C3 1.500(2) ?
C2 C4 1.524(3) ?
C2 C5 1.536(3) ?
C2 C3 1.545(3) ?
C3 C7 1.523(3) ?
C3 C6 1.530(3) ?
C8 C13 1.392(3) ?
C8 C9 1.396(3) ?
C9 C10 1.387(3) ?
C10 C11 1.389(3) ?
C11 C12 1.388(3) ?
C12 C13 1.386(3) ?
C14 C19 1.386(3) ?
C14 C15 1.394(3) ?
C15 C16 1.393(3) ?
C16 C17 1.378(3) ?
C17 C18 1.388(3) ?
C18 C19 1.392(3) ?
C20 C21 1.453(3) ?
C21 C26 1.401(3) ?
C21 C22 1.401(3) ?
C22 C23 1.388(3) ?
C23 C24 1.384(3) ?
C24 C25 1.391(3) ?
C25 C26 1.393(3) ?
C27 C29 1.508(3) ?
C27 C28 1.517(3) ?
C41 C42 1.361(4) ?
C41 C46 1.375(4) ?
C42 C43 1.368(4) ?
C43 C44 1.377(4) ?
C44 C45 1.390(4) ?
C45 C46 1.383(4) ?
#------------------------------------------------------------------------------
#$Date: 2016-02-18 17:37:37 +0200 (Thu, 18 Feb 2016) $
#$Revision: 176729 $
#$URL: svn://www.crystallography.net/cod/cif/1/50/47/1504709.cif $
#------------------------------------------------------------------------------
#
# This file is available in the Crystallography Open Database (COD),
# http://www.crystallography.net/
#
# All data on this site have been placed in the public domain by the
# contributors.
#
data_1504709
loop_
_publ_author_name
'Chung, Cheol K.'
'Grubbs, Robert H.'
_publ_section_title
;
 Olefin metathesis catalyst: stabilization effect of backbone
 substitutions of N-heterocyclic carbene.
;
_journal_issue                   13
_journal_name_full               'Organic letters'
_journal_page_first              2693
_journal_page_last               2696
_journal_paper_doi               10.1021/ol800824h
_journal_volume                  10
_journal_year                    2008
_chemical_formula_moiety         'C30 H36 Cl2 N2 O Ru'
_chemical_formula_sum            'C30 H36 Cl2 N2 O Ru'
_chemical_formula_weight         612.58
_chemical_name_systematic
;

 ?

;
_space_group_IT_number           14
_symmetry_cell_setting           monoclinic
_symmetry_space_group_name_Hall  '-P 2ybc'
_symmetry_space_group_name_H-M   'P 1 21/c 1'
_audit_creation_method           SHELXL-97
_cell_angle_alpha                90.00
_cell_angle_beta                 97.1270(10)
_cell_angle_gamma                90.00
_cell_formula_units_Z            4
_cell_length_a                   9.5479(3)
_cell_length_b                   15.7574(5)
_cell_length_c                   18.9019(6)
_cell_measurement_reflns_used    95235
_cell_measurement_temperature    100(2)
_cell_measurement_theta_max      52.95
_cell_measurement_theta_min      2.51
_cell_volume                     2821.82(15)
_computing_cell_refinement       'Bruker SAINT-Plus v7.34A'
_computing_data_collection       'Bruker APEX2 v2.1-0'
_computing_data_reduction        'Bruker SAINT-Plus v7.34A'
_computing_molecular_graphics    'Bruker XP v5.1'
_computing_publication_material  'Bruker XCIF 2008'
_computing_structure_refinement  'SHELXL-97 (Sheldrick, 2008)'
_computing_structure_solution    'SHELXS-97 (Sheldrick, 2008)'
_diffrn_ambient_temperature      100(2)
_diffrn_measured_fraction_theta_full 0.981
_diffrn_measured_fraction_theta_max 0.872
_diffrn_measurement_device_type  'Bruker KAPPA APEX II'
_diffrn_measurement_method       '\w scans; 18 settings'
_diffrn_radiation_monochromator  graphite
_diffrn_radiation_source         'fine-focus sealed tube'
_diffrn_radiation_type           MoK\a
_diffrn_radiation_wavelength     0.71073
_diffrn_reflns_av_R_equivalents  0.0484
_diffrn_reflns_av_sigmaI/netI    0.0368
_diffrn_reflns_limit_h_max       20
_diffrn_reflns_limit_h_min       -19
_diffrn_reflns_limit_k_max       35
_diffrn_reflns_limit_k_min       -33
_diffrn_reflns_limit_l_max       38
_diffrn_reflns_limit_l_min       -38
_diffrn_reflns_number            170605
_diffrn_reflns_theta_full        33.1
_diffrn_reflns_theta_max         53.24
_diffrn_reflns_theta_min         2.15
_exptl_absorpt_coefficient_mu    0.770
_exptl_absorpt_correction_type   none
_exptl_crystal_colour            'Dark green'
_exptl_crystal_density_diffrn    1.442
_exptl_crystal_density_method    'not measured'
_exptl_crystal_description       Block
_exptl_crystal_F_000             1264
_exptl_crystal_size_max          0.22
_exptl_crystal_size_mid          0.22
_exptl_crystal_size_min          0.19
_refine_diff_density_max         1.788
_refine_diff_density_min         -1.614
_refine_diff_density_rms         0.094
_refine_ls_extinction_method     none
_refine_ls_goodness_of_fit_ref   1.690
_refine_ls_number_parameters     332
_refine_ls_number_reflns         29561
_refine_ls_number_restraints     0
_refine_ls_restrained_S_all      1.690
_refine_ls_R_factor_all          0.0504
_refine_ls_R_factor_gt           0.0308
_refine_ls_shift/su_max          0.009
_refine_ls_shift/su_mean         0.000
_refine_ls_structure_factor_coef Fsqd
_refine_ls_weighting_details     w=1/s^2^(Fo^2^)
_refine_ls_weighting_scheme      sigma
_refine_ls_wR_factor_gt          0.0510
_refine_ls_wR_factor_ref         0.0520
_reflns_number_gt                21856
_reflns_number_total             29561
_reflns_threshold_expression     >2sigma(I)
_cod_data_source_file            ol800824h-file003.cif
_cod_data_source_block           19
_cod_depositor_comments
;
The following automatic conversions were performed:

'_symmetry_cell_setting' value 'Monoclinic' changed to 'monoclinic'
according to /home/saulius/struct/CIF-dictionaries/cif_core.dic
dictionary named 'cif_core.dic' version 2.4.1 from
2010-06-29.

'_refine_ls_weighting_scheme' value 'Sigma' changed to
'sigma' according to
/home/saulius/struct/CIF-dictionaries/cif_core.dic dictionary named
'cif_core.dic' version 2.4.1 from 2010-06-29.

Automatic conversion script
Id: cif_fix_values 1715 2011-07-08 13:25:40Z adriana 
;
_cod_original_sg_symbol_H-M      P2(1)/c
_cod_database_code               1504709
loop_
_symmetry_equiv_pos_as_xyz
'x, y, z'
'-x, y+1/2, -z+1/2'
'-x, -y, -z'
'x, -y-1/2, z-1/2'
loop_
_atom_site_label
_atom_site_type_symbol
_atom_site_fract_x
_atom_site_fract_y
_atom_site_fract_z
_atom_site_U_iso_or_equiv
_atom_site_adp_type
_atom_site_occupancy
_atom_site_symmetry_multiplicity
_atom_site_calc_flag
_atom_site_refinement_flags
Ru1 Ru 0.263828(4) 0.710399(3) 0.911849(3) 0.01124(1) Uani 1 1 d .
Cl1 Cl 0.478493(14) 0.743877(11) 0.981887(10) 0.01881(3) Uani 1 1 d .
Cl2 Cl 0.100227(16) 0.674842(10) 0.813876(9) 0.01855(3) Uani 1 1 d .
O1 O 0.33200(5) 0.57315(3) 0.91973(3) 0.01981(9) Uani 1 1 d .
N1 N 0.24610(5) 0.87516(3) 0.84523(3) 0.01455(9) Uani 1 1 d .
N2 N 0.14081(5) 0.88464(3) 0.94044(3) 0.01401(8) Uani 1 1 d .
C1 C 0.20891(5) 0.83059(4) 0.90137(3) 0.01170(9) Uani 1 1 d .
C2 C 0.22216(7) 0.96837(4) 0.85099(4) 0.01680(11) Uani 1 1 d .
C3 C 0.11935(7) 0.96861(4) 0.90729(4) 0.01893(11) Uani 1 1 d .
H3A H 0.1426 1.0144 0.9427 0.023 Uiso 1 1 calc R
H3B H 0.0207 0.9758 0.8849 0.023 Uiso 1 1 calc R
C4 C 0.15746(9) 1.00658(5) 0.78072(4) 0.02500(14) Uani 1 1 d .
H4A H 0.2255 1.0034 0.7460 0.038 Uiso 1 1 calc R
H4B H 0.1330 1.0661 0.7881 0.038 Uiso 1 1 calc R
H4C H 0.0721 0.9749 0.7627 0.038 Uiso 1 1 calc R
C5 C 0.36153(8) 1.01125(5) 0.87943(5) 0.02747(15) Uani 1 1 d .
H5A H 0.3993 0.9853 0.9249 0.041 Uiso 1 1 calc R
H5B H 0.3453 1.0719 0.8866 0.041 Uiso 1 1 calc R
H5C H 0.4293 1.0041 0.8450 0.041 Uiso 1 1 calc R
C6 C 0.32781(6) 0.84130(4) 0.79328(4) 0.01497(10) Uani 1 1 d .
C7 C 0.26488(6) 0.82935(4) 0.72387(4) 0.01813(11) Uani 1 1 d .
H7 H 0.1676 0.8420 0.7116 0.022 Uiso 1 1 calc R
C8 C 0.34336(7) 0.79902(5) 0.67220(4) 0.02046(12) Uani 1 1 d .
H8 H 0.3005 0.7923 0.6244 0.025 Uiso 1 1 calc R
C9 C 0.48466(7) 0.77845(5) 0.69038(4) 0.02389(14) Uani 1 1 d .
H9 H 0.5380 0.7565 0.6553 0.029 Uiso 1 1 calc R
C10 C 0.54760(7) 0.78996(6) 0.75957(4) 0.02741(15) Uani 1 1 d .
H10 H 0.6443 0.7757 0.7718 0.033 Uiso 1 1 calc R
C11 C 0.47044(7) 0.82233(5) 0.81174(4) 0.02194(13) Uani 1 1 d .
H11 H 0.5145 0.8313 0.8590 0.026 Uiso 1 1 calc R
C12 C 0.06329(6) 0.86023(4) 0.99717(3) 0.01244(9) Uani 1 1 d .
C13 C 0.12797(6) 0.86657(4) 1.06713(3) 0.01316(9) Uani 1 1 d .
C14 C 0.05614(6) 0.83501(4) 1.12157(4) 0.01493(10) Uani 1 1 d .
H14 H 0.0992 0.8381 1.1696 0.018 Uiso 1 1 calc R
C15 C -0.07807(6) 0.79903(4) 1.10656(4) 0.01599(10) Uani 1 1 d .
C16 C -0.14281(6) 0.79851(4) 1.03656(4) 0.01649(11) Uani 1 1 d .
H16 H -0.2362 0.7771 1.0266 0.020 Uiso 1 1 calc R
C17 C -0.07437(6) 0.82857(4) 0.98065(4) 0.01476(10) Uani 1 1 d .
C18 C 0.27370(6) 0.90417(5) 1.08389(4) 0.01923(12) Uani 1 1 d .
H18A H 0.3414 0.8699 1.0612 0.029 Uiso 1 1 calc R
H18B H 0.3007 0.9046 1.1356 0.029 Uiso 1 1 calc R
H18C H 0.2736 0.9624 1.0657 0.029 Uiso 1 1 calc R
C19 C -0.15100(8) 0.76064(5) 1.16518(4) 0.02428(14) Uani 1 1 d .
H19A H -0.2170 0.8020 1.1812 0.036 Uiso 1 1 calc R
H19B H -0.0805 0.7451 1.2053 0.036 Uiso 1 1 calc R
H19C H -0.2029 0.7098 1.1472 0.036 Uiso 1 1 calc R
C20 C -0.14394(7) 0.82156(5) 0.90502(4) 0.02248(13) Uani 1 1 d .
H20A H -0.2386 0.7974 0.9047 0.034 Uiso 1 1 calc R
H20B H -0.0874 0.7847 0.8779 0.034 Uiso 1 1 calc R
H20C H -0.1512 0.8781 0.8832 0.034 Uiso 1 1 calc R
C21 C 0.16547(6) 0.67356(4) 0.98342(4) 0.01403(9) Uani 1 1 d .
H21 H 0.1036 0.7107 1.0041 0.017 Uiso 1 1 calc R
C22 C 0.18411(6) 0.58686(4) 1.00759(4) 0.01627(10) Uani 1 1 d .
C23 C 0.11581(7) 0.55355(4) 1.06297(4) 0.02077(12) Uani 1 1 d .
H23 H 0.0558 0.5888 1.0867 0.025 Uiso 1 1 calc R
C24 C 0.13537(9) 0.46920(5) 1.08344(5) 0.02801(16) Uani 1 1 d .
H24 H 0.0883 0.4465 1.1206 0.034 Uiso 1 1 calc R
C25 C 0.22474(9) 0.41854(5) 1.04873(5) 0.03207(18) Uani 1 1 d .
H25 H 0.2384 0.3610 1.0629 0.038 Uiso 1 1 calc R
C26 C 0.29447(9) 0.44955(5) 0.99404(5) 0.02895(16) Uani 1 1 d .
H26 H 0.3558 0.4142 0.9712 0.035 Uiso 1 1 calc R
C27 C 0.27259(7) 0.53339(4) 0.97342(4) 0.01944(12) Uani 1 1 d .
C28 C 0.39175(9) 0.52190(5) 0.86588(5) 0.03065(17) Uani 1 1 d .
H28 H 0.4615 0.4807 0.8903 0.037 Uiso 1 1 calc R
C29 C 0.46723(9) 0.58325(7) 0.82227(6) 0.0362(2) Uani 1 1 d .
H29A H 0.3983 0.6216 0.7962 0.054 Uiso 1 1 calc R
H29B H 0.5167 0.5516 0.7883 0.054 Uiso 1 1 calc R
H29C H 0.5356 0.6163 0.8540 0.054 Uiso 1 1 calc R
C30 C 0.27534(12) 0.47345(6) 0.82092(6) 0.0420(2) Uani 1 1 d .
H30A H 0.2223 0.4397 0.8521 0.063 Uiso 1 1 calc R
H30B H 0.3171 0.4357 0.7880 0.063 Uiso 1 1 calc R
H30C H 0.2116 0.5137 0.7936 0.063 Uiso 1 1 calc R
loop_
_atom_site_aniso_label
_atom_site_aniso_U_11
_atom_site_aniso_U_22
_atom_site_aniso_U_33
_atom_site_aniso_U_23
_atom_site_aniso_U_13
_atom_site_aniso_U_12
Ru1 0.01196(2) 0.01090(1) 0.01104(2) -0.00009(2) 0.00211(1) 0.00140(1)
Cl1 0.01314(5) 0.02215(7) 0.02041(8) -0.00093(5) -0.00079(5) 0.00156(5)
Cl2 0.02237(6) 0.01978(6) 0.01286(7) -0.00092(5) -0.00034(5) -0.00391(5)
O1 0.0235(2) 0.01379(18) 0.0227(3) -0.00163(17) 0.00529(18) 0.00479(15)
N1 0.01719(19) 0.01372(19) 0.0138(2) 0.00298(16) 0.00626(17) 0.00255(15)
N2 0.01781(19) 0.01140(18) 0.0138(2) 0.00168(15) 0.00594(17) 0.00213(15)
C1 0.01137(18) 0.0129(2) 0.0110(2) 0.00101(17) 0.00199(17) 0.00052(15)
C2 0.0218(2) 0.0129(2) 0.0166(3) 0.00266(19) 0.0060(2) 0.00128(19)
C3 0.0258(3) 0.0129(2) 0.0198(3) 0.0034(2) 0.0094(2) 0.0043(2)
C4 0.0367(4) 0.0200(3) 0.0190(4) 0.0064(2) 0.0059(3) 0.0079(3)
C5 0.0276(3) 0.0228(3) 0.0327(5) -0.0020(3) 0.0068(3) -0.0072(3)
C6 0.0152(2) 0.0165(2) 0.0142(3) 0.00240(19) 0.00597(19) 0.00094(18)
C7 0.0167(2) 0.0214(3) 0.0165(3) 0.0000(2) 0.0028(2) 0.0006(2)
C8 0.0216(3) 0.0263(3) 0.0137(3) -0.0012(2) 0.0027(2) -0.0007(2)
C9 0.0195(3) 0.0361(4) 0.0175(3) -0.0039(3) 0.0078(2) 0.0006(2)
C10 0.0161(2) 0.0479(5) 0.0190(4) -0.0035(3) 0.0050(2) 0.0053(3)
C11 0.0160(2) 0.0359(4) 0.0142(3) -0.0011(3) 0.0027(2) 0.0041(2)
C12 0.01342(19) 0.0120(2) 0.0126(3) 0.00051(17) 0.00439(18) 0.00149(16)
C13 0.01308(19) 0.0129(2) 0.0139(3) -0.00075(18) 0.00307(18) -0.00023(16)
C14 0.0166(2) 0.0162(2) 0.0122(3) -0.00009(19) 0.00271(19) -0.00124(18)
C15 0.0166(2) 0.0157(2) 0.0169(3) -0.00061(19) 0.0066(2) -0.00182(18)
C16 0.0129(2) 0.0180(3) 0.0190(3) -0.0024(2) 0.00387(19) -0.00113(17)
C17 0.0134(2) 0.0158(2) 0.0150(3) -0.00163(19) 0.00138(19) 0.00171(17)
C18 0.0159(2) 0.0232(3) 0.0185(3) -0.0010(2) 0.0018(2) -0.0054(2)
C19 0.0262(3) 0.0259(3) 0.0224(4) 0.0016(3) 0.0098(3) -0.0083(2)
C20 0.0201(3) 0.0288(3) 0.0174(3) -0.0017(3) -0.0023(2) 0.0001(2)
C21 0.0157(2) 0.0127(2) 0.0135(3) 0.00093(18) 0.00120(19) 0.00066(17)
C22 0.0200(2) 0.0127(2) 0.0150(3) 0.00177(19) -0.0023(2) -0.00167(18)
C23 0.0272(3) 0.0189(3) 0.0150(3) 0.0035(2) -0.0022(2) -0.0065(2)
C24 0.0405(4) 0.0215(3) 0.0193(4) 0.0080(3) -0.0075(3) -0.0124(3)
C25 0.0463(4) 0.0143(3) 0.0315(5) 0.0075(3) -0.0112(3) -0.0036(3)
C26 0.0377(4) 0.0130(3) 0.0339(5) 0.0019(3) -0.0043(3) 0.0048(2)
C27 0.0237(3) 0.0125(2) 0.0209(3) 0.0012(2) -0.0017(2) 0.00193(19)
C28 0.0381(4) 0.0242(3) 0.0306(5) -0.0066(3) 0.0083(3) 0.0140(3)
C29 0.0334(4) 0.0453(5) 0.0323(5) -0.0057(4) 0.0138(3) 0.0122(4)
C30 0.0647(6) 0.0226(4) 0.0381(6) -0.0134(4) 0.0038(5) 0.0026(4)
loop_
_atom_type_symbol
_atom_type_description
_atom_type_scat_dispersion_real
_atom_type_scat_dispersion_imag
_atom_type_scat_source
C C 0.0033 0.0016 'International Tables Vol C Tables 4.2.6.8 and 6.1.1.4'
H H 0.0000 0.0000 'International Tables Vol C Tables 4.2.6.8 and 6.1.1.4'
N N 0.0061 0.0033 'International Tables Vol C Tables 4.2.6.8 and 6.1.1.4'
O O 0.0106 0.0060 'International Tables Vol C Tables 4.2.6.8 and 6.1.1.4'
Cl Cl 0.1484 0.1585 'International Tables Vol C Tables 4.2.6.8 and 6.1.1.4'
Ru Ru -1.2594 0.8363 'International Tables Vol C Tables 4.2.6.8 and 6.1.1.4'
loop_
_geom_angle_atom_site_label_1
_geom_angle_atom_site_label_2
_geom_angle_atom_site_label_3
_geom_angle
_geom_angle_publ_flag
C21 Ru1 C1 102.96(2) yes
C21 Ru1 O1 79.51(2) yes
C1 Ru1 O1 177.51(2) yes
C21 Ru1 Cl2 98.94(2) yes
C1 Ru1 Cl2 90.426(18) yes
O1 Ru1 Cl2 88.943(15) yes
C21 Ru1 Cl1 98.37(2) yes
C1 Ru1 Cl1 92.486(17) yes
O1 Ru1 Cl1 87.354(14) yes
Cl2 Ru1 Cl1 161.314(6) yes
C27 O1 C28 119.52(6) ?
C27 O1 Ru1 110.09(4) ?
C28 O1 Ru1 127.91(5) ?
C1 N1 C6 124.19(5) ?
C1 N1 C2 113.28(5) ?
C6 N1 C2 121.23(5) ?
C1 N2 C12 124.86(5) ?
C1 N2 C3 112.79(5) ?
C12 N2 C3 120.35(5) ?
N2 C1 N1 107.03(5) ?
N2 C1 Ru1 133.96(4) ?
N1 C1 Ru1 118.99(4) ?
N1 C2 C4 112.08(6) ?
N1 C2 C5 109.03(5) ?
C4 C2 C5 111.97(6) ?
N1 C2 C3 99.78(5) ?
C4 C2 C3 112.32(6) ?
C5 C2 C3 111.02(6) ?
N2 C3 C2 103.09(5) ?
C7 C6 C11 120.16(6) ?
C7 C6 N1 119.39(5) ?
C11 C6 N1 120.42(6) ?
C6 C7 C8 120.29(6) ?
C7 C8 C9 119.94(7) ?
C10 C9 C8 119.92(6) ?
C9 C10 C11 120.66(6) ?
C6 C11 C10 119.00(7) ?
C13 C12 C17 121.97(5) ?
C13 C12 N2 118.91(5) ?
C17 C12 N2 119.10(6) ?
C12 C13 C14 118.28(5) ?
C12 C13 C18 121.09(5) ?
C14 C13 C18 120.61(6) ?
C13 C14 C15 121.09(6) ?
C16 C15 C14 118.96(6) ?
C16 C15 C19 120.43(6) ?
C14 C15 C19 120.61(6) ?
C15 C16 C17 121.70(5) ?
C16 C17 C12 117.80(6) ?
C16 C17 C20 120.19(6) ?
C12 C17 C20 121.89(6) ?
C22 C21 Ru1 118.58(5) ?
C23 C22 C27 118.71(6) ?
C23 C22 C21 122.67(6) ?
C27 C22 C21 118.62(6) ?
C24 C23 C22 120.45(7) ?
C23 C24 C25 119.10(8) ?
C26 C25 C24 121.94(7) ?
C27 C26 C25 118.43(8) ?
O1 C27 C26 125.51(7) ?
O1 C27 C22 113.14(5) ?
C26 C27 C22 121.36(7) ?
O1 C28 C29 106.20(7) ?
O1 C28 C30 110.12(7) ?
C29 C28 C30 112.46(9) ?
loop_
_geom_bond_atom_site_label_1
_geom_bond_atom_site_label_2
_geom_bond_distance
_geom_bond_publ_flag
Ru1 C21 1.8342(6) yes
Ru1 C1 1.9686(6) yes
Ru1 O1 2.2581(5) yes
Ru1 Cl2 2.33786(17) yes
Ru1 Cl1 2.35763(17) yes
O1 C27 1.3736(9) ?
O1 C28 1.4690(9) ?
N1 C1 1.3560(8) ?
N1 C6 1.4310(8) ?
N1 C2 1.4925(8) ?
N2 C1 1.3464(8) ?
N2 C12 1.4292(8) ?
N2 C3 1.4674(8) ?
C2 C4 1.5181(10) ?
C2 C5 1.5294(10) ?
C2 C3 1.5348(9) ?
C6 C7 1.3864(10) ?
C6 C11 1.3957(9) ?
C7 C8 1.3876(10) ?
C8 C9 1.3886(10) ?
C9 C10 1.3817(11) ?
C10 C11 1.3985(10) ?
C12 C13 1.3919(9) ?
C12 C17 1.4043(8) ?
C13 C14 1.3970(9) ?
C13 C18 1.5093(8) ?
C14 C15 1.3978(8) ?
C15 C16 1.3891(10) ?
C15 C19 1.5067(10) ?
C16 C17 1.3927(9) ?
C17 C20 1.5038(10) ?
C21 C22 1.4445(8) ?
C22 C23 1.4021(10) ?
C22 C27 1.4057(10) ?
C23 C24 1.3904(10) ?
C24 C25 1.3910(14) ?
C25 C26 1.3862(14) ?
C26 C27 1.3859(10) ?
C28 C29 1.5102(14) ?
C28 C30 1.5186(14) ?
#------------------------------------------------------------------------------
#$Date: 2016-03-21 06:55:12 +0200 (Mon, 21 Mar 2016) $
#$Revision: 178540 $
#$URL: svn://www.crystallography.net/cod/cif/4/06/46/4064690.cif $
#------------------------------------------------------------------------------
#
# This file is available in the Crystallography Open Database (COD),
# http://www.crystallography.net/
#
# All data on this site have been placed in the public domain by the
# contributors.
#
data_4064690
loop_
_publ_author_name
'Bouffard, Jean'
'Keitz, Benjamin K.'
'Tonner, Ralf'
'Lavallo, Vincent'
'Guisado-Barrios, Gregorio'
'Frenking, Gernot'
'Grubbs, Robert H.'
'Bertrand, Guy'
_publ_section_title
;
 Synthesis of Highly Stable 1,3-Diaryl-1H-1,2,3-triazol-5-ylidenes and
 their Applications in Ruthenium-Catalyzed Olefin Metathesis.
;
_journal_issue                   9
_journal_name_full               Organometallics
_journal_page_first              2617
_journal_page_last               2627
_journal_paper_doi               10.1021/om200272m
_journal_volume                  30
_journal_year                    2011
_chemical_formula_moiety         'C51 H69 Cl2 N3 O Ru, C7 H8'
_chemical_formula_sum            'C58 H77 Cl2 N3 O Ru'
_chemical_formula_weight         1004.20
_chemical_name_systematic
;

 ?

;
_space_group_IT_number           85
_symmetry_cell_setting           tetragonal
_symmetry_space_group_name_Hall  '-P 4a'
_symmetry_space_group_name_H-M   'P 4/n :2'
_atom_sites_solution_hydrogens   geom
_atom_sites_solution_primary     direct
_atom_sites_solution_secondary   difmap
_audit_creation_method           SHELXL-97
_cell_angle_alpha                90.00
_cell_angle_beta                 90.00
_cell_angle_gamma                90.00
_cell_formula_units_Z            8
_cell_length_a                   24.5155(5)
_cell_length_b                   24.5155(5)
_cell_length_c                   18.8485(4)
_cell_measurement_reflns_used    9272
_cell_measurement_temperature    100(2)
_cell_measurement_theta_max      33.78
_cell_measurement_theta_min      2.63
_cell_volume                     11328.1(4)
_computing_cell_refinement       'Bruker SAINT-Plus v7.66A'
_computing_data_collection       'Bruker APEX2 v2009.7-0'
_computing_data_reduction        'Bruker SAINT-Plus v7.66A'
_computing_molecular_graphics    'Bruker XP v5.1'
_computing_publication_material  'Bruker XCIF 2008'
_computing_structure_refinement  'SHELXL-97 (Sheldrick, 2008)'
_computing_structure_solution    'SHELXS-97 (Sheldrick, 2008)'
_diffrn_ambient_temperature      100(2)
_diffrn_measured_fraction_theta_full 0.989
_diffrn_measured_fraction_theta_max 0.989
_diffrn_measurement_device_type  'Bruker KAPPA APEX II'
_diffrn_measurement_method       '\w scans; 7 settings'
_diffrn_radiation_monochromator  graphite
_diffrn_radiation_source         'fine-focus sealed tube'
_diffrn_radiation_type           MoK\a
_diffrn_radiation_wavelength     0.71073
_diffrn_reflns_av_R_equivalents  0.0355
_diffrn_reflns_av_sigmaI/netI    0.0296
_diffrn_reflns_limit_h_max       39
_diffrn_reflns_limit_h_min       -38
_diffrn_reflns_limit_k_max       25
_diffrn_reflns_limit_k_min       -38
_diffrn_reflns_limit_l_max       29
_diffrn_reflns_limit_l_min       -29
_diffrn_reflns_number            232077
_diffrn_reflns_theta_full        34.50
_diffrn_reflns_theta_max         34.50
_diffrn_reflns_theta_min         2.32
_exptl_absorpt_coefficient_mu    0.410
_exptl_absorpt_correction_T_max  0.9336
_exptl_absorpt_correction_T_min  0.8665
_exptl_absorpt_correction_type   none
_exptl_crystal_colour            'Dark brown'
_exptl_crystal_density_diffrn    1.178
_exptl_crystal_density_method    'not measured'
_exptl_crystal_description       Block
_exptl_crystal_F_000             4256
_exptl_crystal_size_max          0.36
_exptl_crystal_size_mid          0.25
_exptl_crystal_size_min          0.17
_refine_diff_density_max         1.770
_refine_diff_density_min         -1.423
_refine_diff_density_rms         0.083
_refine_ls_extinction_method     none
_refine_ls_goodness_of_fit_ref   4.381
_refine_ls_hydrogen_treatment    constr
_refine_ls_matrix_type           full
_refine_ls_number_parameters     590
_refine_ls_number_reflns         23781
_refine_ls_number_restraints     43
_refine_ls_restrained_S_all      4.476
_refine_ls_R_factor_all          0.0696
_refine_ls_R_factor_gt           0.0487
_refine_ls_shift/su_max          0.003
_refine_ls_shift/su_mean         0.000
_refine_ls_structure_factor_coef Fsqd
_refine_ls_weighting_details     w=1/s^2^(Fo^2^)
_refine_ls_weighting_scheme      sigma
_refine_ls_wR_factor_gt          0.0708
_refine_ls_wR_factor_ref         0.0712
_reflns_number_gt                16570
_reflns_number_total             23781
_reflns_threshold_expression     >2sigma(I)
_cod_data_source_file            om200272m_si_002.cif
_cod_data_source_block           Faa
_cod_depositor_comments
;
The following automatic conversions were performed:

'_symmetry_cell_setting' value 'Tetragonal' changed to 'tetragonal'
according to /home/saulius/struct/CIF-dictionaries/cif_core.dic
dictionary named 'cif_core.dic' version 2.4.1 from
2010-06-29.

'_atom_sites_solution_hydrogens' value 'Geom' changed to
'geom' according to
/home/saulius/struct/CIF-dictionaries/cif_core.dic dictionary named
'cif_core.dic' version 2.4.1 from
2010-06-29.

'_atom_sites_solution_primary' value 'Direct' changed to
'direct' according to
/home/saulius/struct/CIF-dictionaries/cif_core.dic dictionary named
'cif_core.dic' version 2.4.1 from
2010-06-29.

'_atom_sites_solution_secondary' value 'Difmap' changed
to 'difmap' according to
/home/saulius/struct/CIF-dictionaries/cif_core.dic dictionary named
'cif_core.dic' version 2.4.1 from
2010-06-29.

'_refine_ls_matrix_type' value 'Full' changed to 'full'
according to /home/saulius/struct/CIF-dictionaries/cif_core.dic
dictionary named 'cif_core.dic' version 2.4.1 from
2010-06-29.

'_refine_ls_weighting_scheme' value 'Sigma' changed to
'sigma' according to
/home/saulius/struct/CIF-dictionaries/cif_core.dic dictionary named
'cif_core.dic' version 2.4.1 from 2010-06-29.

Automatic conversion script
Id: cif_fix_values 1715 2011-07-08 13:25:40Z adriana 
;
_cod_original_sg_symbol_H-M      P4/n
_cod_database_code               4064690
loop_
_symmetry_equiv_pos_as_xyz
'x, y, z'
'-x+1/2, -y+1/2, z'
'-y+1/2, x, z'
'y, -x+1/2, z'
'-x, -y, -z'
'x-1/2, y-1/2, -z'
'y-1/2, -x, -z'
'-y, x-1/2, -z'
loop_
_atom_site_label
_atom_site_type_symbol
_atom_site_fract_x
_atom_site_fract_y
_atom_site_fract_z
_atom_site_U_iso_or_equiv
_atom_site_adp_type
_atom_site_occupancy
_atom_site_symmetry_multiplicity
_atom_site_calc_flag
_atom_site_refinement_flags
_atom_site_disorder_assembly
_atom_site_disorder_group
Ru1 Ru 1.014195(6) 0.334361(6) 0.240830(7) 0.02276(4) Uani 1 1 d . . .
Cl1 Cl 1.00417(2) 0.291432(19) 0.34986(2) 0.03412(12) Uani 1 1 d . . .
Cl2 Cl 1.064784(19) 0.385975(19) 0.16166(3) 0.02996(11) Uani 1 1 d . . .
O1 O 1.05338(5) 0.25618(5) 0.19428(7) 0.0288(3) Uani 1 1 d . . .
N1 N 0.99652(6) 0.43488(6) 0.32735(7) 0.0198(3) Uani 1 1 d . . .
N2 N 0.96192(6) 0.46188(6) 0.36989(7) 0.0215(3) Uani 1 1 d . . .
N3 N 0.91354(6) 0.44101(6) 0.35272(7) 0.0211(3) Uani 1 1 d . . .
C1 C 0.97285(7) 0.39553(7) 0.28419(9) 0.0212(4) Uani 1 1 d . . .
C2 C 0.91723(7) 0.40250(7) 0.29913(9) 0.0227(4) Uani 1 1 d . . .
C3 C 0.86752(7) 0.38342(7) 0.26022(10) 0.0245(4) Uani 1 1 d . . .
C4 C 0.83108(7) 0.34598(8) 0.29014(10) 0.0259(4) Uani 1 1 d . . .
C5 C 0.78526(7) 0.33106(8) 0.25153(11) 0.0330(5) Uani 1 1 d . . .
H5 H 0.7606 0.3057 0.2719 0.040 Uiso 1 1 calc R . .
C6 C 0.77396(8) 0.35128(9) 0.18522(11) 0.0347(5) Uani 1 1 d . . .
C7 C 0.81111(8) 0.38689(9) 0.15520(11) 0.0376(5) Uani 1 1 d . . .
H7 H 0.8043 0.4005 0.1089 0.045 Uiso 1 1 calc R . .
C8 C 0.85838(8) 0.40354(9) 0.19082(11) 0.0346(5) Uani 1 1 d . . .
C9 C 0.84034(8) 0.31886(8) 0.36115(10) 0.0297(5) Uani 1 1 d . . .
H9 H 0.8716 0.3378 0.3848 0.036 Uiso 1 1 calc R . .
C10 C 0.79039(8) 0.32414(8) 0.40979(11) 0.0392(6) Uani 1 1 d . . .
H10A H 0.7811 0.3628 0.4155 0.059 Uiso 1 1 calc R . .
H10B H 0.7988 0.3083 0.4563 0.059 Uiso 1 1 calc R . .
H10C H 0.7595 0.3047 0.3886 0.059 Uiso 1 1 calc R . .
C11 C 0.85622(8) 0.25864(8) 0.35097(12) 0.0412(6) Uani 1 1 d . . .
H11A H 0.8266 0.2394 0.3267 0.062 Uiso 1 1 calc R . .
H11B H 0.8627 0.2418 0.3974 0.062 Uiso 1 1 calc R . .
H11C H 0.8895 0.2564 0.3223 0.062 Uiso 1 1 calc R . .
C12 C 0.72054(8) 0.33683(10) 0.14824(12) 0.0457(6) Uani 1 1 d . . .
H12 H 0.7101 0.2998 0.1657 0.055 Uiso 1 1 calc R . .
C13 C 0.67597(9) 0.37578(11) 0.17358(14) 0.0745(9) Uani 1 1 d . . .
H13A H 0.6855 0.4132 0.1602 0.112 Uiso 1 1 calc R . .
H13B H 0.6726 0.3734 0.2253 0.112 Uiso 1 1 calc R . .
H13C H 0.6412 0.3658 0.1516 0.112 Uiso 1 1 calc R . .
C14 C 0.72373(9) 0.33282(12) 0.07026(12) 0.0715(9) Uani 1 1 d . . .
H14A H 0.6895 0.3179 0.0518 0.107 Uiso 1 1 calc R . .
H14B H 0.7540 0.3088 0.0571 0.107 Uiso 1 1 calc R . .
H14C H 0.7298 0.3692 0.0501 0.107 Uiso 1 1 calc R . .
C15 C 0.89792(10) 0.44064(11) 0.15001(12) 0.0558(7) Uani 1 1 d . . .
H15 H 0.9284 0.4503 0.1829 0.067 Uiso 1 1 calc R . .
C16 C 0.87065(11) 0.49431(10) 0.12626(12) 0.0698(9) Uani 1 1 d . . .
H16A H 0.8378 0.4860 0.0986 0.105 Uiso 1 1 calc R . .
H16B H 0.8962 0.5152 0.0970 0.105 Uiso 1 1 calc R . .
H16C H 0.8606 0.5158 0.1681 0.105 Uiso 1 1 calc R . .
C17 C 0.92270(9) 0.41248(11) 0.08574(12) 0.0656(9) Uani 1 1 d . . .
H17A H 0.9451 0.3817 0.1015 0.098 Uiso 1 1 calc R . .
H17B H 0.9455 0.4384 0.0596 0.098 Uiso 1 1 calc R . .
H17C H 0.8935 0.3992 0.0548 0.098 Uiso 1 1 calc R . .
C18 C 1.05157(7) 0.45770(7) 0.32176(9) 0.0213(4) Uani 1 1 d . . .
C19 C 1.09365(7) 0.43744(7) 0.36405(10) 0.0233(4) Uani 1 1 d . . .
C20 C 1.14505(8) 0.46004(8) 0.35241(10) 0.0290(5) Uani 1 1 d . . .
H20 H 1.1752 0.4470 0.3793 0.035 Uiso 1 1 calc R . .
C21 C 1.15347(8) 0.50046(8) 0.30337(10) 0.0302(5) Uani 1 1 d . . .
H21 H 1.1892 0.5143 0.2959 0.036 Uiso 1 1 calc R . .
C22 C 1.11054(7) 0.52116(7) 0.26494(10) 0.0281(4) Uani 1 1 d . . .
H22 H 1.1167 0.5502 0.2325 0.034 Uiso 1 1 calc R . .
C23 C 1.05807(7) 0.50004(7) 0.27298(9) 0.0232(4) Uani 1 1 d . . .
C24 C 1.08583(8) 0.39650(8) 0.42336(10) 0.0302(5) Uani 1 1 d . . .
H24 H 1.0476 0.3823 0.4211 0.036 Uiso 1 1 calc R . .
C25 C 1.09458(9) 0.42296(8) 0.49613(10) 0.0402(6) Uani 1 1 d . . .
H25A H 1.1322 0.4364 0.4996 0.060 Uiso 1 1 calc R . .
H25B H 1.0880 0.3959 0.5335 0.060 Uiso 1 1 calc R . .
H25C H 1.0692 0.4535 0.5019 0.060 Uiso 1 1 calc R . .
C26 C 1.12507(9) 0.34819(8) 0.41705(13) 0.0527(7) Uani 1 1 d . . .
H26A H 1.1216 0.3318 0.3698 0.079 Uiso 1 1 calc R . .
H26B H 1.1161 0.3209 0.4532 0.079 Uiso 1 1 calc R . .
H26C H 1.1626 0.3609 0.4241 0.079 Uiso 1 1 calc R . .
C27 C 1.01131(7) 0.52569(8) 0.23192(10) 0.0295(5) Uani 1 1 d . . .
H27 H 0.9792 0.5008 0.2360 0.035 Uiso 1 1 calc R . .
C28 C 0.99511(9) 0.58054(8) 0.26430(12) 0.0471(6) Uani 1 1 d . . .
H28A H 0.9846 0.5753 0.3140 0.071 Uiso 1 1 calc R . .
H28B H 0.9643 0.5958 0.2378 0.071 Uiso 1 1 calc R . .
H28C H 1.0261 0.6057 0.2618 0.071 Uiso 1 1 calc R . .
C29 C 1.02415(8) 0.53252(8) 0.15277(10) 0.0384(5) Uani 1 1 d . . .
H29A H 1.0544 0.5582 0.1470 0.058 Uiso 1 1 calc R . .
H29B H 0.9919 0.5466 0.1281 0.058 Uiso 1 1 calc R . .
H29C H 1.0343 0.4971 0.1326 0.058 Uiso 1 1 calc R . .
C30 C 0.86863(7) 0.45218(7) 0.40129(10) 0.0234(4) Uani 1 1 d . . .
C31 C 0.87211(8) 0.42962(7) 0.46945(10) 0.0253(4) Uani 1 1 d . . .
C32 C 0.83000(9) 0.44203(8) 0.51539(11) 0.0336(5) Uani 1 1 d . . .
H32 H 0.8311 0.4281 0.5624 0.040 Uiso 1 1 calc R . .
C33 C 0.78632(9) 0.47405(9) 0.49500(12) 0.0405(6) Uani 1 1 d . . .
H33 H 0.7578 0.4816 0.5277 0.049 Uiso 1 1 calc R . .
C34 C 0.78424(8) 0.49491(9) 0.42760(12) 0.0388(6) Uani 1 1 d . . .
H34 H 0.7538 0.5164 0.4139 0.047 Uiso 1 1 calc R . .
C35 C 0.82562(8) 0.48532(8) 0.37896(10) 0.0299(5) Uani 1 1 d . . .
C36 C 0.91963(8) 0.39571(7) 0.49603(10) 0.0291(5) Uani 1 1 d . . .
H36 H 0.9415 0.3836 0.4541 0.035 Uiso 1 1 calc R . .
C37 C 0.90194(9) 0.34468(8) 0.53770(11) 0.0438(6) Uani 1 1 d . . .
H37A H 0.8823 0.3558 0.5806 0.066 Uiso 1 1 calc R . .
H37B H 0.9343 0.3235 0.5511 0.066 Uiso 1 1 calc R . .
H37C H 0.8780 0.3222 0.5080 0.066 Uiso 1 1 calc R . .
C38 C 0.95616(8) 0.43051(8) 0.54359(10) 0.0380(5) Uani 1 1 d . . .
H38A H 0.9699 0.4618 0.5166 0.057 Uiso 1 1 calc R . .
H38B H 0.9870 0.4085 0.5603 0.057 Uiso 1 1 calc R . .
H38C H 0.9351 0.4435 0.5844 0.057 Uiso 1 1 calc R . .
C39 C 0.82362(9) 0.51183(9) 0.30671(11) 0.0390(6) Uani 1 1 d . . .
H39 H 0.8532 0.4953 0.2772 0.047 Uiso 1 1 calc R . .
C40 C 0.83552(11) 0.57306(9) 0.31321(13) 0.0656(8) Uani 1 1 d . . .
H40A H 0.8074 0.5903 0.3427 0.098 Uiso 1 1 calc R . .
H40B H 0.8354 0.5897 0.2659 0.098 Uiso 1 1 calc R . .
H40C H 0.8714 0.5783 0.3352 0.098 Uiso 1 1 calc R . .
C41 C 0.76921(9) 0.50124(11) 0.26910(12) 0.0669(8) Uani 1 1 d . . .
H41A H 0.7626 0.4619 0.2665 0.100 Uiso 1 1 calc R . .
H41B H 0.7706 0.5164 0.2210 0.100 Uiso 1 1 calc R . .
H41C H 0.7396 0.5187 0.2957 0.100 Uiso 1 1 calc R . .
C42 C 0.95799(8) 0.30533(8) 0.19001(9) 0.0284(5) Uani 1 1 d . . .
H42 H 0.9231 0.3221 0.1916 0.034 Uiso 1 1 calc R . .
C43 C 0.96604(8) 0.25694(8) 0.14731(10) 0.0279(5) Uani 1 1 d . . .
C44 C 0.92553(8) 0.23504(9) 0.10377(10) 0.0354(5) Uani 1 1 d . . .
H44 H 0.8908 0.2522 0.1014 0.043 Uiso 1 1 calc R . .
C45 C 0.93540(9) 0.18887(9) 0.06422(10) 0.0391(6) Uani 1 1 d . . .
H45 H 0.9078 0.1746 0.0340 0.047 Uiso 1 1 calc R . .
C46 C 0.98523(9) 0.16343(8) 0.06855(10) 0.0362(5) Uani 1 1 d . . .
H46 H 0.9914 0.1312 0.0417 0.043 Uiso 1 1 calc R . .
C47 C 1.02671(9) 0.18344(8) 0.11095(10) 0.0324(5) Uani 1 1 d . . .
H47 H 1.0610 0.1654 0.1137 0.039 Uiso 1 1 calc R . .
C48 C 1.01658(8) 0.23076(8) 0.14939(10) 0.0282(5) Uani 1 1 d . . .
C49 C 1.10994(8) 0.23676(8) 0.19423(12) 0.0372(5) Uani 1 1 d . . .
H49 H 1.1102 0.1960 0.1974 0.045 Uiso 1 1 calc R . .
C50 C 1.13574(8) 0.26025(8) 0.26002(12) 0.0447(6) Uani 1 1 d . . .
H50A H 1.1352 0.3002 0.2573 0.067 Uiso 1 1 calc R . .
H50B H 1.1735 0.2475 0.2637 0.067 Uiso 1 1 calc R . .
H50C H 1.1152 0.2483 0.3019 0.067 Uiso 1 1 calc R . .
C51 C 1.13752(9) 0.25417(9) 0.12607(12) 0.0480(6) Uani 1 1 d . . .
H51A H 1.1179 0.2387 0.0855 0.072 Uiso 1 1 calc R . .
H51B H 1.1753 0.2410 0.1258 0.072 Uiso 1 1 calc R . .
H51C H 1.1373 0.2941 0.1227 0.072 Uiso 1 1 calc R . .
C61 C 0.98143(17) 0.67644(17) 0.02525(18) 0.175(2) Uani 1 1 d DU A 1
H61A H 0.9781 0.6672 -0.0251 0.263 Uiso 1 1 calc R A 1
H61B H 1.0098 0.6537 0.0470 0.263 Uiso 1 1 calc R A 1
H61C H 0.9913 0.7150 0.0300 0.263 Uiso 1 1 calc R A 1
C62 C 0.92826(11) 0.66639(10) 0.06162(13) 0.1077(14) Uani 1 1 d GU A 1
C63 C 0.92092(13) 0.68359(11) 0.13123(13) 0.171(2) Uani 1 1 d GDU A 1
H63 H 0.9503 0.6999 0.1564 0.205 Uiso 1 1 calc R A 1
C64 C 0.87059(15) 0.67699(12) 0.16408(13) 0.246(3) Uani 1 1 d GU A 1
H64 H 0.8656 0.6888 0.2117 0.296 Uiso 1 1 calc R A 1
C65 C 0.82759(12) 0.65319(13) 0.12730(18) 0.190(2) Uani 1 1 d GU A 1
H65 H 0.7932 0.6487 0.1498 0.228 Uiso 1 1 calc R A 1
C66 C 0.83493(12) 0.63598(12) 0.05769(18) 0.177(2) Uani 1 1 d GU A 1
H66 H 0.8055 0.6197 0.0326 0.212 Uiso 1 1 calc R A 1
C67 C 0.88527(13) 0.64258(11) 0.02484(12) 0.174(2) Uani 1 1 d GDU A 1
H67 H 0.8903 0.6308 -0.0227 0.209 Uiso 1 1 calc R A 1
loop_
_atom_site_aniso_label
_atom_site_aniso_U_11
_atom_site_aniso_U_22
_atom_site_aniso_U_33
_atom_site_aniso_U_23
_atom_site_aniso_U_13
_atom_site_aniso_U_12
Ru1 0.02684(9) 0.02311(9) 0.01834(7) -0.00250(7) -0.00084(7) -0.00501(7)
Cl1 0.0561(4) 0.0233(3) 0.0230(3) -0.0004(2) 0.0007(2) -0.0085(2)
Cl2 0.0315(3) 0.0300(3) 0.0284(3) 0.0022(2) 0.0053(2) -0.0022(2)
O1 0.0325(8) 0.0273(8) 0.0266(8) -0.0056(6) -0.0021(6) -0.0029(6)
N1 0.0199(8) 0.0225(8) 0.0169(8) 0.0001(7) -0.0023(7) -0.0023(7)
N2 0.0210(8) 0.0241(9) 0.0193(8) 0.0003(7) -0.0034(7) -0.0038(7)
N3 0.0218(8) 0.0243(9) 0.0173(8) 0.0000(7) -0.0026(7) -0.0032(7)
C1 0.0266(10) 0.0231(10) 0.0140(9) -0.0011(8) -0.0027(8) -0.0064(8)
C2 0.0298(11) 0.0235(10) 0.0147(9) 0.0003(8) -0.0019(8) -0.0058(8)
C3 0.0218(10) 0.0316(11) 0.0201(10) -0.0088(9) -0.0017(9) -0.0038(8)
C4 0.0232(10) 0.0278(11) 0.0267(11) -0.0118(9) 0.0038(9) -0.0035(8)
C5 0.0268(11) 0.0410(12) 0.0312(13) -0.0126(10) 0.0035(10) -0.0103(9)
C6 0.0172(10) 0.0506(14) 0.0363(13) -0.0209(11) 0.0001(9) -0.0020(10)
C7 0.0324(12) 0.0590(15) 0.0213(11) -0.0091(11) -0.0070(10) -0.0026(11)
C8 0.0299(12) 0.0488(14) 0.0252(11) -0.0036(10) -0.0045(10) -0.0093(10)
C9 0.0282(11) 0.0308(12) 0.0301(12) -0.0056(10) 0.0029(9) -0.0097(9)
C10 0.0377(13) 0.0447(14) 0.0353(13) -0.0051(11) 0.0069(11) -0.0129(11)
C11 0.0374(13) 0.0339(13) 0.0522(15) -0.0016(11) 0.0024(11) -0.0098(10)
C12 0.0203(11) 0.0722(17) 0.0446(15) -0.0269(13) -0.0045(10) -0.0041(11)
C13 0.0252(13) 0.112(2) 0.086(2) -0.0565(19) -0.0139(14) 0.0139(14)
C14 0.0308(14) 0.138(3) 0.0458(16) -0.0419(17) -0.0051(12) -0.0146(15)
C15 0.0520(16) 0.088(2) 0.0272(13) 0.0202(13) -0.0227(12) -0.0375(15)
C16 0.109(2) 0.075(2) 0.0254(14) 0.0063(14) -0.0094(15) -0.0334(18)
C17 0.0294(14) 0.125(3) 0.0426(15) 0.0439(17) -0.0022(12) 0.0025(14)
C18 0.0199(10) 0.0223(10) 0.0218(10) -0.0067(8) -0.0007(8) -0.0035(8)
C19 0.0257(11) 0.0217(10) 0.0223(10) -0.0066(8) -0.0044(8) 0.0006(8)
C20 0.0223(11) 0.0370(12) 0.0275(11) -0.0090(10) -0.0071(9) 0.0056(9)
C21 0.0201(11) 0.0424(13) 0.0282(12) -0.0079(10) 0.0009(9) -0.0043(9)
C22 0.0280(11) 0.0320(11) 0.0244(10) -0.0006(9) 0.0014(9) -0.0063(8)
C23 0.0232(10) 0.0253(10) 0.0211(10) -0.0031(8) -0.0016(8) -0.0033(8)
C24 0.0332(12) 0.0250(11) 0.0324(12) -0.0013(9) -0.0116(10) -0.0010(9)
C25 0.0547(15) 0.0352(13) 0.0306(12) 0.0032(10) -0.0057(11) -0.0045(11)
C26 0.0623(17) 0.0331(14) 0.0626(18) -0.0034(12) -0.0149(14) 0.0129(12)
C27 0.0269(11) 0.0310(11) 0.0304(12) 0.0085(9) -0.0050(9) -0.0056(8)
C28 0.0496(14) 0.0511(15) 0.0406(14) 0.0054(12) -0.0048(12) 0.0162(11)
C29 0.0417(13) 0.0425(14) 0.0311(12) 0.0062(11) -0.0056(11) 0.0005(11)
C30 0.0229(10) 0.0257(11) 0.0217(10) -0.0062(8) 0.0022(8) -0.0061(8)
C31 0.0326(12) 0.0210(10) 0.0223(10) -0.0058(8) 0.0019(9) -0.0082(9)
C32 0.0442(14) 0.0319(12) 0.0247(11) -0.0059(9) 0.0071(10) -0.0121(10)
C33 0.0331(13) 0.0468(15) 0.0417(14) -0.0178(12) 0.0121(11) -0.0080(11)
C34 0.0265(12) 0.0440(14) 0.0459(15) -0.0107(12) -0.0026(11) 0.0020(10)
C35 0.0267(11) 0.0348(12) 0.0281(11) -0.0068(10) -0.0045(9) -0.0027(9)
C36 0.0427(13) 0.0241(11) 0.0206(10) -0.0014(9) 0.0012(9) -0.0037(9)
C37 0.0670(17) 0.0323(13) 0.0322(13) 0.0038(10) -0.0023(12) -0.0073(12)
C38 0.0479(14) 0.0316(12) 0.0346(13) -0.0020(10) -0.0111(11) 0.0002(10)
C39 0.0385(13) 0.0448(14) 0.0338(13) -0.0034(11) -0.0112(11) 0.0083(11)
C40 0.102(2) 0.0474(17) 0.0475(16) 0.0110(13) -0.0091(16) 0.0048(15)
C41 0.0490(16) 0.099(2) 0.0524(17) -0.0140(16) -0.0251(14) 0.0197(15)
C42 0.0289(11) 0.0356(12) 0.0208(10) -0.0074(9) 0.0039(9) -0.0051(9)
C43 0.0321(12) 0.0338(12) 0.0178(10) -0.0042(9) 0.0052(9) -0.0099(9)
C44 0.0334(12) 0.0474(14) 0.0255(12) -0.0118(10) 0.0043(10) -0.0126(10)
C45 0.0433(14) 0.0502(15) 0.0237(12) -0.0150(11) 0.0042(10) -0.0178(12)
C46 0.0572(15) 0.0304(12) 0.0209(11) -0.0086(10) 0.0062(11) -0.0121(11)
C47 0.0448(14) 0.0299(12) 0.0226(11) -0.0031(9) 0.0043(10) -0.0032(10)
C48 0.0397(13) 0.0277(11) 0.0173(10) -0.0009(9) 0.0029(9) -0.0111(9)
C49 0.0327(13) 0.0292(12) 0.0496(15) -0.0072(11) -0.0021(11) 0.0030(10)
C50 0.0375(12) 0.0363(13) 0.0605(16) -0.0098(12) -0.0149(13) 0.0039(10)
C51 0.0397(14) 0.0410(14) 0.0632(17) -0.0076(13) 0.0153(13) -0.0024(11)
C61 0.188(4) 0.189(4) 0.150(4) 0.069(3) 0.097(3) 0.026(3)
C62 0.170(4) 0.094(3) 0.059(2) -0.016(2) -0.045(3) 0.002(3)
C63 0.239(5) 0.140(4) 0.134(4) -0.015(3) -0.035(4) -0.028(4)
C64 0.201(6) 0.232(6) 0.305(7) 0.072(5) 0.107(5) -0.020(5)
C65 0.133(4) 0.186(5) 0.251(6) 0.055(5) -0.011(4) -0.039(3)
C66 0.249(6) 0.219(5) 0.062(3) -0.026(3) -0.076(3) 0.019(4)
C67 0.234(5) 0.170(4) 0.118(4) 0.017(3) 0.066(4) -0.009(4)
loop_
_atom_type_symbol
_atom_type_description
_atom_type_scat_dispersion_real
_atom_type_scat_dispersion_imag
_atom_type_scat_source
C C 0.0033 0.0016 'International Tables Vol C Tables 4.2.6.8 and 6.1.1.4'
H H 0.0000 0.0000 'International Tables Vol C Tables 4.2.6.8 and 6.1.1.4'
N N 0.0061 0.0033 'International Tables Vol C Tables 4.2.6.8 and 6.1.1.4'
O O 0.0106 0.0060 'International Tables Vol C Tables 4.2.6.8 and 6.1.1.4'
Cl Cl 0.1484 0.1585 'International Tables Vol C Tables 4.2.6.8 and 6.1.1.4'
Ru Ru -1.2594 0.8363 'International Tables Vol C Tables 4.2.6.8 and 6.1.1.4'
loop_
_geom_angle_atom_site_label_1
_geom_angle_atom_site_label_2
_geom_angle_atom_site_label_3
_geom_angle
_geom_angle_publ_flag
C42 Ru1 C1 97.20(8) yes
C42 Ru1 Cl2 106.22(6) yes
C1 Ru1 Cl2 97.23(5) yes
C42 Ru1 O1 77.96(7) yes
C1 Ru1 O1 172.88(6) yes
Cl2 Ru1 O1 89.19(3) yes
C42 Ru1 Cl1 102.02(6) yes
C1 Ru1 Cl1 85.64(5) yes
Cl2 Ru1 Cl1 150.975(19) yes
O1 Ru1 Cl1 90.24(3) yes
C48 O1 C49 118.00(15) ?
C48 O1 Ru1 109.49(11) ?
C49 O1 Ru1 131.39(11) ?
N2 N1 C1 115.38(14) ?
N2 N1 C18 115.91(14) ?
C1 N1 C18 127.46(14) ?
N3 N2 N1 103.19(13) ?
N2 N3 C2 112.38(15) ?
N2 N3 C30 116.60(14) ?
C2 N3 C30 129.44(15) ?
N1 C1 C2 101.77(15) ?
N1 C1 Ru1 123.52(13) ?
C2 C1 Ru1 132.12(13) ?
N3 C2 C1 107.03(15) ?
N3 C2 C3 121.11(16) ?
C1 C2 C3 130.91(16) ?
C4 C3 C8 119.99(17) ?
C4 C3 C2 121.81(17) ?
C8 C3 C2 118.19(17) ?
C5 C4 C3 118.57(18) ?
C5 C4 C9 118.04(18) ?
C3 C4 C9 123.33(17) ?
C6 C5 C4 123.07(19) ?
C5 C6 C7 117.89(18) ?
C5 C6 C12 120.4(2) ?
C7 C6 C12 121.7(2) ?
C6 C7 C8 122.2(2) ?
C7 C8 C3 118.19(19) ?
C7 C8 C15 117.06(18) ?
C3 C8 C15 124.69(17) ?
C4 C9 C11 110.47(16) ?
C4 C9 C10 111.83(16) ?
C11 C9 C10 110.92(16) ?
C14 C12 C13 113.0(2) ?
C14 C12 C6 115.17(18) ?
C13 C12 C6 109.03(17) ?
C17 C15 C8 112.5(2) ?
C17 C15 C16 109.22(18) ?
C8 C15 C16 112.1(2) ?
C23 C18 C19 123.83(17) ?
C23 C18 N1 115.88(15) ?
C19 C18 N1 120.29(16) ?
C20 C19 C18 115.92(17) ?
C20 C19 C24 119.61(17) ?
C18 C19 C24 124.33(17) ?
C21 C20 C19 121.98(18) ?
C20 C21 C22 120.46(18) ?
C21 C22 C23 120.78(18) ?
C22 C23 C18 116.92(17) ?
C22 C23 C27 119.14(17) ?
C18 C23 C27 123.86(16) ?
C19 C24 C25 111.25(15) ?
C19 C24 C26 112.08(17) ?
C25 C24 C26 108.01(17) ?
C23 C27 C28 110.89(16) ?
C23 C27 C29 112.69(16) ?
C28 C27 C29 110.20(16) ?
C35 C30 C31 123.50(18) ?
C35 C30 N3 119.36(17) ?
C31 C30 N3 117.11(16) ?
C32 C31 C30 116.24(18) ?
C32 C31 C36 119.21(18) ?
C30 C31 C36 124.48(17) ?
C31 C32 C33 122.0(2) ?
C34 C33 C32 119.9(2) ?
C33 C34 C35 121.5(2) ?
C34 C35 C30 116.85(19) ?
C34 C35 C39 119.96(19) ?
C30 C35 C39 123.15(18) ?
C31 C36 C38 109.77(16) ?
C31 C36 C37 113.42(17) ?
C38 C36 C37 108.64(16) ?
C35 C39 C41 111.87(19) ?
C35 C39 C40 110.06(18) ?
C41 C39 C40 111.62(19) ?
C43 C42 Ru1 120.61(15) ?
C44 C43 C48 118.11(19) ?
C44 C43 C42 123.05(19) ?
C48 C43 C42 118.84(18) ?
C45 C44 C43 120.6(2) ?
C46 C45 C44 119.8(2) ?
C45 C46 C47 121.8(2) ?
C48 C47 C46 117.8(2) ?
O1 C48 C47 125.28(19) ?
O1 C48 C43 112.85(17) ?
C47 C48 C43 121.85(19) ?
O1 C49 C50 105.81(16) ?
O1 C49 C51 109.36(17) ?
C50 C49 C51 113.80(18) ?
C63 C62 C67 120.0 ?
C63 C62 C61 119.8 ?
C67 C62 C61 120.2 ?
C64 C63 C62 120.0 ?
C63 C64 C65 120.0 ?
C66 C65 C64 120.0 ?
C67 C66 C65 120.0 ?
C66 C67 C62 120.0 ?
loop_
_geom_bond_atom_site_label_1
_geom_bond_atom_site_label_2
_geom_bond_distance
_geom_bond_publ_flag
Ru1 C42 1.8228(18) yes
Ru1 C1 1.9860(18) yes
Ru1 Cl2 2.3165(5) yes
Ru1 O1 2.3165(12) yes
Ru1 Cl1 2.3218(5) yes
O1 C48 1.385(2) ?
O1 C49 1.466(2) ?
N1 N2 1.3420(18) ?
N1 C1 1.389(2) ?
N1 C18 1.465(2) ?
N2 N3 1.3317(18) ?
N3 C2 1.386(2) ?
N3 C30 1.458(2) ?
C1 C2 1.403(2) ?
C2 C3 1.497(2) ?
C3 C4 1.399(2) ?
C3 C8 1.416(3) ?
C4 C5 1.388(2) ?
C4 C9 1.512(3) ?
C5 C6 1.373(3) ?
C6 C7 1.382(3) ?
C6 C12 1.525(3) ?
C7 C8 1.400(2) ?
C8 C15 1.536(3) ?
C9 C11 1.539(2) ?
C9 C10 1.535(2) ?
C12 C14 1.475(3) ?
C12 C13 1.528(3) ?
C15 C17 1.521(3) ?
C15 C16 1.542(3) ?
C18 C23 1.396(2) ?
C18 C19 1.395(2) ?
C19 C20 1.394(2) ?
C19 C24 1.514(2) ?
C20 C21 1.371(2) ?
C21 C22 1.375(2) ?
C22 C23 1.395(2) ?
C23 C27 1.519(2) ?
C24 C25 1.532(3) ?
C24 C26 1.530(3) ?
C27 C28 1.529(3) ?
C27 C29 1.534(2) ?
C30 C35 1.396(2) ?
C30 C31 1.401(2) ?
C31 C32 1.381(2) ?
C31 C36 1.516(3) ?
C32 C33 1.382(3) ?
C33 C34 1.370(3) ?
C34 C35 1.387(3) ?
C35 C39 1.510(3) ?
C36 C38 1.527(2) ?
C36 C37 1.539(2) ?
C39 C41 1.533(3) ?
C39 C40 1.534(3) ?
C42 C43 1.447(2) ?
C43 C44 1.396(2) ?
C43 C48 1.396(3) ?
C44 C45 1.377(3) ?
C45 C46 1.374(3) ?
C46 C47 1.383(3) ?
C47 C48 1.390(2) ?
C49 C50 1.506(3) ?
C49 C51 1.513(3) ?
C61 C62 1.493(4) ?
C62 C63 1.3900 ?
C62 C67 1.3900 ?
C63 C64 1.3900 ?
C64 C65 1.3900 ?
C65 C66 1.3900 ?
C66 C67 1.3900 ?
